THERMO ALL
       100       500      1500
! ---------------------------------
! Ru(0001) 0 % Strain [T & S sites]
! ---------------------------------
! NIST 
NH3             20200802N   1H   3          G298.0     1500.0    592.4         1
 2.78395662E+00 4.95809145E-03-6.99897857E-07-3.64861853E-10 1.18192265E-13    2
-6.58708192E+03 5.86245616E+00 4.38591560E+00-6.45610533E-03 3.06335822E-05    3
-3.93962796E-08 1.86235890E-11-6.77288321E+03-9.65971735E-01                   4
! NIST
H2              20200802H   2               G100.0     2000.0    791.5         1
 3.87477067E+00-1.37112242E-03 1.67715317E-06-6.29819288E-10 8.25486826E-14    2
-1.12008569E+03-6.05293502E+00 2.52847231E+00 7.09313422E-03-1.91040770E-05    3
 2.27694673E-08-1.00153522E-11-9.40599211E+02-1.36077347E-01                   4
! NIST
N2              20200802N   2               G100.0     2000.0    791.5         1
 2.95777821E+00 1.13094739E-03 3.65148606E-08-2.56570523E-10 6.33874587E-14    2
-9.02652143E+02 5.93131992E+00 3.47021080E+00 5.16439891E-04-2.88494917E-06    3
 6.06421706E-09-3.32545322E-12-1.04251991E+03 3.20064728E+00                   4
! primaryThermoLibrary
HE                      He  1               G   100.000  5000.000 3142.77      1
 2.50000000E+00 3.32026413E-12-1.37161245E-15 2.48094222E-19-1.65799619E-23    2
-7.45374998E+02 9.28724018E-01 2.50000000E+00 9.62838494E-15-1.50167895E-17    3
 7.73923008E-21-1.23210440E-24-7.45375000E+02 9.28724000E-01                   4
N2(T)           20240128N   2               S100.0     1500.0    500.0         1
 3.88555607E+00 2.25579107E-03-6.74243181E-07-1.56805094E-10 8.86546530E-14    2
-8.09044892E+03-1.59479287E+01-4.15269022E-01 3.85284631E-02-1.17383449E-04    3
 1.68785681E-07-9.23186795E-11-7.67341731E+03 1.63692288E+00                   4
N(T)            20240128N   1               S100.0     1500.0    500.0         1
 8.81592750E-01 5.93998550E-03-6.89025148E-06 3.70304607E-09-7.59376769E-13    2
-1.26102461E+04-5.55662232E+00-6.26549307E-01 3.10362616E-03 5.83736827E-05    3
-1.81844809E-07 1.56189066E-10-1.23027033E+04 2.35491864E+00                   4
H(T)            20240128H   1               S100.0     1500.0    500.0         1
-1.59446486E+00 1.16296966E-02-1.25644676E-05 6.41488372E-09-1.26617068E-12    2
-6.22691227E+03 6.33950188E+00 6.88496466E-01-1.38512868E-02 8.47127091E-05    3
-1.51068877E-07 9.17686332E-11-6.35726948E+03-2.15920892E+00                   4
NH3(T)          20240128N   1H   3          S100.0     1500.0    500.0         1
 2.59608053E+00 1.05184631E-02-7.12704042E-06 3.18299981E-09-6.48423332E-13    2
-1.60491306E+04-1.09637386E+01 9.36635813E-01 2.23568480E-02-4.08447870E-05    3
 4.76221396E-08-2.29237157E-11-1.58494412E+04-3.85899352E+00                   4
NH2(T)          20240128N   1H   2          S100.0     1500.0    500.0         1
 1.72904798E+00 1.12305142E-02-1.05353687E-05 5.52410610E-09-1.16990017E-12    2
-1.35453630E+04-9.87083523E+00-5.52107493E-01 1.28669584E-02 4.03721594E-05    3
-1.51178033E-07 1.31909234E-10-1.31137614E+04 1.57388331E+00                   4
NH(T)           20240128N   1H   1          S100.0     1500.0    500.0         1
 1.12030379E+00 9.97260213E-03-1.08784221E-05 5.96143775E-09-1.26605718E-12    2
-1.61008016E+04-7.49768780E+00-6.18882504E-01 1.00054202E-03 9.68705805E-05    3
-2.70604612E-07 2.20447297E-10-1.56636066E+04 2.38739237E+00                   4
TS1_NH3(T)      20240128N   1H   3          S100.0     1500.0    500.0         1
 1.27913899E+00 1.46599186E-02-1.22222618E-05 5.66911189E-09-1.09697996E-12    2
-4.32242671E+03-6.99572106E+00-9.02285171E-01 3.38134946E-02-8.44025475E-05    3
 1.35364576E-07-9.03219812E-11-4.08723509E+03 1.99688588E+00                   4
TS2_NH2(T)      20240128N   1H   2          S100.0     1500.0    500.0         1
 6.63056651E-01 1.52095913E-02-1.58012421E-05 8.20160197E-09-1.66761397E-12    2
-7.44874877E+03-5.48480591E+00-1.35649247E+00 1.79510657E-02 1.95241866E-05    3
-1.06893896E-07 9.74821155E-11-7.07487003E+03 4.52591584E+00                   4
TS3_NH(T)       20240128N   1H   1          S100.0     1500.0    500.0         1
 1.12421343E+00 9.77027922E-03-1.05526572E-05 5.39506037E-09-1.06697684E-12    2
-3.56774917E+03-6.80870553E+00-1.70102808E+00 2.71114786E-02-4.47656009E-05    3
 2.11777561E-08 1.06711775E-11-3.21720710E+03 5.51406052E+00                   4
TS4_N2(T)       20240128N   2               S100.0     1500.0    500.0         1
 3.04685324E+00 5.54463908E-03-6.48452966E-06 3.50504915E-09-7.21793313E-13    2
 8.48554160E+03-1.54420603E+01-2.32713346E+00 4.59863159E-02-1.22626769E-04    3
 1.52544763E-07-7.18535089E-11 9.07241301E+03 7.15354743E+00                   4
N2(S)           20240128N   2               S100.0     1500.0    500.0         1
 1.97820282E+00 1.07131158E-02-1.20166339E-05 6.31028436E-09-1.27266149E-12    2
-1.01991978E+04-1.13924205E+01-2.81331763E+00 4.24076141E-02-8.66566041E-05    3
 7.36959255E-08-1.44374379E-11-9.62587194E+03 9.26571297E+00                   4
N(S)            20240128N   1               S100.0     1500.0    500.0         1
 8.41886313E-01 6.04605571E-03-7.00922981E-06 3.76545786E-09-7.71945940E-13    2
-1.31743585E+04-5.37840448E+00-5.67223056E-01 2.06423227E-03 6.29862277E-05    3
-1.90213926E-07 1.61692659E-10-1.28730292E+04 2.16410241E+00                   4
N(S2)           20240128N   1               S100.0     1500.0    500.0         1
 1.10948357E+00 5.32401108E-03-6.19354861E-06 3.33534788E-09-6.84984710E-13    2
-7.82724043E+03-6.55812324E+00-9.90256114E-01 9.89041505E-03 2.66141929E-05    3
-1.21466365E-07 1.14826904E-10-7.48708286E+03 3.50196445E+00                   4
H(S)            20240128H   1               S100.0     1500.0    500.0         1
-9.77206800E-01 8.99327950E-03-8.89490036E-06 4.23588302E-09-7.90961070E-13    2
-6.22688418E+03 4.01189181E+00-6.19376989E-01 1.22983220E-02-4.41535494E-05    3
 9.62968227E-08-7.61423868E-11-6.31732479E+03 1.88442317E+00                   4
NH3(S)          20240128N   1H   3          S100.0     1500.0    500.0         1
 2.62924993E+00 1.03616497E-02-6.89457817E-06 3.04147991E-09-6.17352171E-13    2
-1.89577875E+04-1.11937759E+01 8.56500778E-01 2.34498342E-02-4.53414530E-05    3
 5.50424742E-08-2.72785395E-11-1.87513659E+04-3.66519460E+00                   4
NH2(S)          20240128N   1H   2          S100.0     1500.0    500.0         1
 1.82458452E+00 1.10967319E-02-1.04980610E-05 5.54164275E-09-1.17777445E-12    2
-2.00708764E+04-9.94874972E+00-2.03257483E-01 1.05402360E-02 4.82281444E-05    3
-1.64439376E-07 1.40688407E-10-1.96650288E+04 4.56849225E-01                   4
NH(S)           20240128N   1H   1          S100.0     1500.0    500.0         1
 1.31532728E+00 9.44907643E-03-1.02762378E-05 5.64002517E-09-1.20073535E-12    2
-1.50350331E+04-8.37689282E+00-8.23906053E-01 4.78422346E-03 8.05290632E-05    3
-2.41782079E-07 2.01944194E-10-1.45695495E+04 3.03448262E+00                   4
TS1_NH3(S)      20240128N   1H   3          S100.0     1500.0    500.0         1
 9.75205505E-01 1.55676168E-02-1.33270846E-05 6.27360270E-09-1.22093514E-12    2
-1.07972001E+04-5.23126194E+00-6.01623948E-01 2.64204164E-02-4.46290681E-05    3
 5.05049320E-08-2.62160628E-11-1.05960310E+04 1.60204008E+00                   4
TS2_NH2(S)      20240128N   1H   2          S100.0     1500.0    500.0         1
 1.93846733E+00 9.97576403E-03-8.80587621E-06 4.18183315E-09-8.13453123E-13    2
-6.82764721E+03-1.00900471E+01-1.39800870E+00 3.28338127E-02-6.63027285E-05    3
 6.41918924E-08-2.03855449E-11-6.43629470E+03 4.20832088E+00                   4
TS3_NH(S)       20240128N   1H   1          S100.0     1500.0    500.0         1
 9.14333370E-01 8.86489582E-03-8.62016221E-06 4.09312966E-09-7.67887706E-13    2
-5.25075776E+03-5.96708913E+00-1.42355479E+00 1.55688599E-02 2.09838728E-05    3
-1.26784494E-07 1.26514226E-10-4.90386099E+03 4.97393440E+00                   4
TS4_N2(S)       20240128N   2               S100.0     1500.0    500.0         1
 1.90601734E+00 8.70701287E-03-1.01244527E-05 5.45051057E-09-1.11912677E-12    2
-3.84154481E+03-1.11388298E+01-1.76723139E+00 1.94718182E-02 2.76977250E-05    3
-1.66587501E-07 1.64421183E-10-3.27297818E+03 6.16047983E+00                   4
RU(T)           20240128Ru  1               S100.0     1500.0    814.3         1
 0.00000000E+00 0.00000000E+00 0.00000000E+00 0.00000000E+00 0.00000000E+00    2
 0.00000000E+00 0.00000000E+00 0.00000000E+00 0.00000000E+00 0.00000000E+00    3
 0.00000000E+00 0.00000000E+00 0.00000000E+00 0.00000000E+00                   4
RU(S)           20240128Ru  1               S100.0     1500.0    814.3         1
 0.00000000E+00 0.00000000E+00 0.00000000E+00 0.00000000E+00 0.00000000E+00    2
 0.00000000E+00 0.00000000E+00 0.00000000E+00 0.00000000E+00 0.00000000E+00    3
 0.00000000E+00 0.00000000E+00 0.00000000E+00 0.00000000E+00                   4
RU(B)           20240128Ru  1               S100.0     1500.0    814.3         1
 0.00000000E+00 0.00000000E+00 0.00000000E+00 0.00000000E+00 0.00000000E+00    2
 0.00000000E+00 0.00000000E+00 0.00000000E+00 0.00000000E+00 0.00000000E+00    3
 0.00000000E+00 0.00000000E+00 0.00000000E+00 0.00000000E+00                   4
END