THERMO ALL
       100       500      1500
! ----------------------------------
! Ru(0001) -4 % Strain [T & S sites]
! ----------------------------------
! NIST 
NH3             20200802N   1H   3          G298.0     1500.0    592.4         1
 2.78395662E+00 4.95809145E-03-6.99897857E-07-3.64861853E-10 1.18192265E-13    2
-6.58708192E+03 5.86245616E+00 4.38591560E+00-6.45610533E-03 3.06335822E-05    3
-3.93962796E-08 1.86235890E-11-6.77288321E+03-9.65971735E-01                   4
! NIST
H2              20200802H   2               G100.0     2000.0    791.5         1
 3.87477067E+00-1.37112242E-03 1.67715317E-06-6.29819288E-10 8.25486826E-14    2
-1.12008569E+03-6.05293502E+00 2.52847231E+00 7.09313422E-03-1.91040770E-05    3
 2.27694673E-08-1.00153522E-11-9.40599211E+02-1.36077347E-01                   4
! NIST
N2              20200802N   2               G100.0     2000.0    791.5         1
 2.95777821E+00 1.13094739E-03 3.65148606E-08-2.56570523E-10 6.33874587E-14    2
-9.02652143E+02 5.93131992E+00 3.47021080E+00 5.16439891E-04-2.88494917E-06    3
 6.06421706E-09-3.32545322E-12-1.04251991E+03 3.20064728E+00                   4
! primaryThermoLibrary
HE                      He  1               G   100.000  5000.000 3142.77      1
 2.50000000E+00 3.32026413E-12-1.37161245E-15 2.48094222E-19-1.65799619E-23    2
-7.45374998E+02 9.28724018E-01 2.50000000E+00 9.62838494E-15-1.50167895E-17    3
 7.73923008E-21-1.23210440E-24-7.45375000E+02 9.28724000E-01                   4
N2(T)           20240128N   2               S100.0     1500.0    500.0         1
 3.77412717E+00 2.57060717E-03-1.03912352E-06 3.87381981E-11 4.86763605E-14    2
-6.30943504E+03-1.59255680E+01-4.29914331E-01 3.65436402E-02-1.04657156E-04    3
 1.40426908E-07-7.07490440E-11-5.88770480E+03 1.42334719E+00                   4
N(T)            20240128N   1               S100.0     1500.0    500.0         1
 8.76669123E-01 5.93766037E-03-6.87532256E-06 3.69047048E-09-7.56122497E-13    2
-6.45440036E+03-5.50103440E+00-6.85134607E-01 4.68021277E-03 4.87064195E-05    3
-1.59773252E-07 1.38960337E-10-6.15133067E+03 2.51388850E+00                   4
H(T)            20240128H   1               S100.0     1500.0    500.0         1
-1.46274430E+00 1.11090935E-02-1.18639130E-05 6.00734795E-09-1.17854813E-12    2
-4.84290389E+03 5.75122377E+00 6.16644691E-01-1.30837919E-02 8.47361372E-05    3
-1.58321116E-07 1.01252929E-10-4.95605428E+03-1.90339998E+00                   4
NH3(T)          20240128N   1H   3          S100.0     1500.0    500.0         1
 2.50851064E+00 1.07076156E-02-7.28294456E-06 3.24418837E-09-6.58125115E-13    2
-1.51032670E+04-1.10502504E+01 5.85478572E-01 2.62744121E-02-5.96955294E-05    3
 8.71100365E-08-5.26581066E-11-1.48891468E+04-3.01309550E+00                   4
NH2(T)          20240128N   1H   2          S100.0     1500.0    500.0         1
 1.53147795E+00 1.17676534E-02-1.11524993E-05 5.85307457E-09-1.23676964E-12    2
-1.20649083E+04-9.19339353E+00-8.06911225E-01 1.39439772E-02 3.71583965E-05    3
-1.44958403E-07 1.27027499E-10-1.16259305E+04 2.49143733E+00                   4
NH(T)           20240128N   1H   1          S100.0     1500.0    500.0         1
-1.75103641E-01 1.59843603E-02-1.75817695E-05 9.10543322E-09-1.81779448E-12    2
-1.44866393E+04-1.70387254E+00-2.63851569E-01-6.12534260E-03 1.32421253E-04    3
-3.31905900E-07 2.58521639E-10-1.42274978E+04 1.29313666E+00                   4
TS1_NH3(T)      20240128N   1H   3          S100.0     1500.0    500.0         1
 1.08574125E+00 1.51427960E-02-1.27405412E-05 5.93379161E-09-1.14943863E-12    2
-2.03264200E+03-6.35896109E+00-1.13943127E+00 3.42085578E-02-8.33580456E-05    3
 1.31719854E-07-8.74105227E-11-1.78715540E+03 2.87066471E+00                   4
TS2_NH2(T)      20240128N   1H   2          S100.0     1500.0    500.0         1
 8.74936587E-01 1.45950905E-02-1.50919271E-05 7.82408894E-09-1.59084952E-12    2
-4.25897723E+03-6.39161261E+00-1.56117949E+00 2.26055706E-02-3.08271815E-06    3
-6.31728392E-08 6.71279006E-11-3.86277809E+03 5.12597779E+00                   4
TS3_NH(T)       20240128N   1H   1          S100.0     1500.0    500.0         1
 1.35360296E+00 9.04362812E-03-9.65265374E-06 4.89178819E-09-9.61052303E-13    2
 1.24085098E+03-6.95936812E+00-6.89396329E-01 2.06123275E-02-2.76051314E-05    3
 2.20457913E-10 2.03196841E-11 1.50426803E+03 2.05890907E+00                   4
TS4_N2(T)       20240128N   2               S100.0     1500.0    500.0         1
 2.97651645E+00 5.71671902E-03-6.66471069E-06 3.59454794E-09-7.39045613E-13    2
 1.44358229E+04-1.47932105E+01-1.65908959E+00 3.86681049E-02-9.42119161E-05    3
 1.04189373E-07-4.12464987E-11 1.49638803E+04 4.92444992E+00                   4
N2(S)           20240128N   2               S100.0     1500.0    500.0         1
 1.97327663E+00 1.06313862E-02-1.18547410E-05 6.19979819E-09-1.24668961E-12    2
-7.85298351E+03-1.13084817E+01-2.87578717E+00 4.41109082E-02-9.67128143E-05    3
 9.53170488E-08-3.03653247E-11-7.28810437E+03 9.43580761E+00                   4
N(S)            20240128N   1               S100.0     1500.0    500.0         1
 8.21300963E-01 6.09784959E-03-7.06478183E-06 3.79361854E-09-7.77468193E-13    2
-1.18887943E+04-5.27930644E+00-5.50873248E-01 1.88487243E-03 6.32388997E-05    3
-1.89747038E-07 1.60831018E-10-1.15913854E+04 2.10580832E+00                   4
N(S2)           20240128N   1               S100.0     1500.0    500.0         1
 1.30307171E+00 4.78138254E-03-5.56440151E-06 2.99737457E-09-6.15704653E-13    2
-4.99906527E+03-7.33130696E+00-1.29730708E+00 1.72945712E-02-1.27769398E-05    3
-3.93553546E-08 5.44678643E-11-4.64501295E+03 4.37801733E+00                   4
H(S)            20240128H   1               S100.0     1500.0    500.0         1
-9.86200744E-01 9.00128382E-03-8.89951777E-06 4.23881908E-09-7.91866711E-13    2
-6.44810388E+03 3.98436204E+00-5.86864325E-01 1.04555103E-02-3.23564843E-05    3
 6.93140713E-08-5.52159078E-11-6.52882735E+03 1.84655707E+00                   4
NH3(S)          20240128N   1H   3          S100.0     1500.0    500.0         1
 2.67776258E+00 1.02004114E-02-6.69784404E-06 2.93329169E-09-5.94844734E-13    2
-1.86144212E+04-9.44215969E+00 1.53623043E+00 1.58956533E-02-1.24545573E-05    3
-8.46306499E-09 1.78719155E-11-1.84530465E+04-4.28971150E+00                   4
NH2(S)          20240128N   1H   2          S100.0     1500.0    500.0         1
 1.67158741E+00 1.14877889E-02-1.09300348E-05 5.76757888E-09-1.22336114E-12    2
-2.06985717E+04-9.26913315E+00-1.79355428E-02 6.60991823E-03 6.69610350E-05    3
-2.00356787E-07 1.65436109E-10-2.03104661E+04-8.23974738E-02                   4
NH(S)           20240128N   1H   1          S100.0     1500.0    500.0         1
 1.14193661E+00 9.91000054E-03-1.07982034E-05 5.91564662E-09-1.25639441E-12    2
-1.49558389E+04-7.59492440E+00-6.28189321E-01 1.22904840E-03 9.59021406E-05    3
-2.68938205E-07 2.19393237E-10-1.45159733E+04 2.41324092E+00                   4
TS1_NH3(S)      20240128N   1H   3          S100.0     1500.0    500.0         1
 8.70075472E-01 1.58651721E-02-1.36718359E-05 6.45806227E-09-1.25856823E-12    2
-1.09912932E+04-4.70407430E+00-5.16582693E-01 2.36345151E-02-2.93063006E-05    3
 1.82314707E-08-2.36393351E-12-1.07947469E+04 1.50981200E+00                   4
TS2_NH2(S)      20240128N   1H   2          S100.0     1500.0    500.0         1
 1.75247858E+00 1.05048777E-02-9.41827232E-06 4.50851667E-09-8.79876312E-13    2
-7.11012237E+03-9.44971615E+00-1.37647125E+00 2.98036635E-02-4.86171821E-05    3
 2.65861874E-08 7.39272483E-12-6.72137513E+03 4.19678925E+00                   4
TS3_NH(S)       20240128N   1H   1          S100.0     1500.0    500.0         1
 9.49085445E-01 8.72215935E-03-8.43200687E-06 3.98653013E-09-7.45516782E-13    2
-4.20395133E+03-6.10459631E+00-1.46196323E+00 1.65833002E-02 1.52967745E-05    3
-1.14645074E-07 1.17451046E-10-3.85487852E+03 5.07862042E+00                   4
TS4_N2(S)       20240128N   2               S100.0     1500.0    500.0         1
 1.78957524E+00 9.01485031E-03-1.04672201E-05 5.62934857E-09-1.15499736E-12    2
-3.12203011E+02-1.06149829E+01-1.61779157E+00 1.68090516E-02 3.92995920E-05    3
-1.87222905E-07 1.77744443E-10 2.38783026E+02 5.68272115E+00                   4
RU(T)           20240128Ru  1               S100.0     1500.0    814.3         1
 0.00000000E+00 0.00000000E+00 0.00000000E+00 0.00000000E+00 0.00000000E+00    2
 0.00000000E+00 0.00000000E+00 0.00000000E+00 0.00000000E+00 0.00000000E+00    3
 0.00000000E+00 0.00000000E+00 0.00000000E+00 0.00000000E+00                   4
RU(S)           20240128Ru  1               S100.0     1500.0    814.3         1
 0.00000000E+00 0.00000000E+00 0.00000000E+00 0.00000000E+00 0.00000000E+00    2
 0.00000000E+00 0.00000000E+00 0.00000000E+00 0.00000000E+00 0.00000000E+00    3
 0.00000000E+00 0.00000000E+00 0.00000000E+00 0.00000000E+00                   4
RU(B)           20240128Ru  1               S100.0     1500.0    814.3         1
 0.00000000E+00 0.00000000E+00 0.00000000E+00 0.00000000E+00 0.00000000E+00    2
 0.00000000E+00 0.00000000E+00 0.00000000E+00 0.00000000E+00 0.00000000E+00    3
 0.00000000E+00 0.00000000E+00 0.00000000E+00 0.00000000E+00                   4
END