THERMO ALL
       100       500      1500
! ----------------------------------
! Ru(0001) +4 % Strain [T & S sites]
! ----------------------------------
! NIST 
NH3             20200802N   1H   3          G298.0     1500.0    592.4         1
 2.78395662E+00 4.95809145E-03-6.99897857E-07-3.64861853E-10 1.18192265E-13    2
-6.58708192E+03 5.86245616E+00 4.38591560E+00-6.45610533E-03 3.06335822E-05    3
-3.93962796E-08 1.86235890E-11-6.77288321E+03-9.65971735E-01                   4
! NIST
H2              20200802H   2               G100.0     2000.0    791.5         1
 3.87477067E+00-1.37112242E-03 1.67715317E-06-6.29819288E-10 8.25486826E-14    2
-1.12008569E+03-6.05293502E+00 2.52847231E+00 7.09313422E-03-1.91040770E-05    3
 2.27694673E-08-1.00153522E-11-9.40599211E+02-1.36077347E-01                   4
! NIST
N2              20200802N   2               G100.0     2000.0    791.5         1
 2.95777821E+00 1.13094739E-03 3.65148606E-08-2.56570523E-10 6.33874587E-14    2
-9.02652143E+02 5.93131992E+00 3.47021080E+00 5.16439891E-04-2.88494917E-06    3
 6.06421706E-09-3.32545322E-12-1.04251991E+03 3.20064728E+00                   4
! primaryThermoLibrary
HE                      He  1               G   100.000  5000.000 3142.77      1
 2.50000000E+00 3.32026413E-12-1.37161245E-15 2.48094222E-19-1.65799619E-23    2
-7.45374998E+02 9.28724018E-01 2.50000000E+00 9.62838494E-15-1.50167895E-17    3
 7.73923008E-21-1.23210440E-24-7.45375000E+02 9.28724000E-01                   4
N2(T)           20240128N   2               S100.0     1500.0    500.0         1
 3.90936750E+00 2.19689801E-03-6.05132516E-07-1.95667401E-10 9.70034400E-14    2
-1.05418110E+04-1.65487473E+01-5.68760598E-01 4.10086971E-02-1.29638993E-04    3
 1.93764950E-07-1.10540617E-10-1.01169605E+04 1.65141733E+00                   4
N(T)            20240128N   1               S100.0     1500.0    500.0         1
 9.16998205E-01 5.84697690E-03-6.78717877E-06 3.64946173E-09-7.48659080E-13    2
-1.81951343E+04-5.71920206E+00-6.72624281E-01 3.84823617E-03 5.53651367E-05    3
-1.76888839E-07 1.53232110E-10-1.78816291E+04 2.50648933E+00                   4
H(T)            20240128H   1               S100.0     1500.0    500.0         1
-1.54948766E+00 1.16068546E-02-1.26104931E-05 6.46500300E-09-1.28003244E-12    2
-7.42966818E+03 6.09617466E+00 7.18110167E-01-1.44702245E-02 8.87903869E-05    3
-1.60025537E-07 9.82833181E-11-7.54972513E+03-2.25119916E+00                   4
NH3(T)          20240128N   1H   3          S100.0     1500.0    500.0         1
 2.54714332E+00 1.06749021E-02-7.33211972E-06 3.30168039E-09-6.73817290E-13    2
-1.81119335E+04-1.11601380E+01 5.48861722E-01 2.58865033E-02-5.41814424E-05    3
 7.08949382E-08-3.83099293E-11-1.78831066E+04-2.71955773E+00                   4
NH2(T)          20240128N   1H   2          S100.0     1500.0    500.0         1
 1.83840365E+00 1.09644028E-02-1.02472706E-05 5.37608674E-09-1.14057741E-12    2
-1.53459651E+04-1.03825398E+01-6.76153313E-01 1.48955779E-02 3.23503201E-05    3
-1.38135385E-07 1.24177710E-10-1.48958557E+04 1.97570630E+00                   4
NH(T)           20240128N   1H   1          S100.0     1500.0    500.0         1
 1.30136167E+00 9.46450886E-03-1.02547478E-05 5.61414105E-09-1.19370766E-12    2
-1.93445266E+04-8.34231843E+00-7.92487237E-01 3.59093888E-03 8.77864896E-05    3
-2.58126337E-07 2.14602769E-10-1.88762405E+04 2.96912889E+00                   4
TS1_NH3(T)      20240128N   1H   3          S100.0     1500.0    500.0         1
 1.13571858E+00 1.49913716E-02-1.25526831E-05 5.82709546E-09-1.12656844E-12    2
-6.69155894E+03-6.55004952E+00-1.28813810E+00 3.64941025E-02-9.30181086E-05    3
 1.48110102E-07-9.72935752E-11-6.43687410E+03 3.39423342E+00                   4
TS2_NH2(T)      20240128N   1H   2          S100.0     1500.0    500.0         1
 5.25025183E-01 1.57535519E-02-1.65202402E-05 8.61538228E-09-1.75610705E-12    2
-1.04704574E+04-4.92277343E+00-1.25114921E+00 1.55617767E-02 3.01706717E-05    3
-1.24596324E-07 1.07712946E-10-1.01066017E+04 4.21501173E+00                   4
TS3_NH(T)       20240128N   1H   1          S100.0     1500.0    500.0         1
 9.74504323E-01 1.03019768E-02-1.12448978E-05 5.79262817E-09-1.15200812E-12    2
-8.99425959E+03-6.36415406E+00-1.78585208E+00 2.42157600E-02-2.36527964E-05    3
-2.79452317E-08 4.88168609E-11-8.62145990E+03 6.00945547E+00                   4
TS4_N2(T)       20240128N   2               S100.0     1500.0    500.0         1
 3.16798690E+00 5.22320984E-03-6.12586884E-06 3.31768212E-09-6.84182679E-13    2
 1.96751755E+02-1.62151368E+01-3.15396788E+00 5.67186807E-02-1.69491686E-04    3
 2.40139917E-07-1.31783356E-10 8.46726740E+02 9.92715775E+00                   4
N2(S)           20240128N   2               S100.0     1500.0    500.0         1
 2.03480881E+00 1.05933087E-02-1.19051249E-05 6.26000753E-09-1.26371851E-12    2
-1.16225697E+04-1.16218353E+01-2.79065331E+00 4.29289572E-02-9.03139815E-05    3
 8.24018988E-08-2.14640630E-11-1.10482239E+04 9.14285511E+00                   4
N(S)            20240128N   1               S100.0     1500.0    500.0         1
 9.20543315E-01 5.83688426E-03-6.77536026E-06 3.64306989E-09-7.47342500E-13    2
-1.47150784E+04-5.73350350E+00-6.80397882E-01 4.01362529E-03 5.45032845E-05    3
-1.75108674E-07 1.51931270E-10-1.44012227E+04 2.52990352E+00                   4
N(S2)           20240128N   1               S100.0     1500.0    500.0         1
 1.08476690E+00 5.39456482E-03-6.27631746E-06 3.38017045E-09-6.94226161E-13    2
-1.12995659E+04-6.46086113E+00-9.39428561E-01 8.73223422E-03 3.27970822E-05    3
-1.34431137E-07 1.24403284E-10-1.09612929E+04 3.35319990E+00                   4
H(S)            20240128H   1               S100.0     1500.0    500.0         1
-9.39325733E-01 8.99659483E-03-8.97054973E-06 4.30022296E-09-8.07331962E-13    2
-6.27027425E+03 3.85304800E+00-5.88137304E-01 1.25921716E-02-4.66956038E-05    3
 1.03214170E-07-8.22348231E-11-6.36004691E+03 1.73928302E+00                   4
NH3(S)          20240128N   1H   3          S100.0     1500.0    500.0         1
 2.62884300E+00 1.03624365E-02-6.89424946E-06 3.04065181E-09-6.17068833E-13    2
-1.90742307E+04-1.04012237E+01 1.16949983E+00 1.98426300E-02-2.97565021E-05    3
 2.54791989E-08-6.62351912E-12-1.88900514E+04-4.05538169E+00                   4
NH2(S)          20240128N   1H   2          S100.0     1500.0    500.0         1
 1.77905742E+00 1.12273502E-02-1.06608280E-05 5.63416446E-09-1.19747962E-12    2
-1.96985991E+04-9.74367096E+00-1.12853525E-01 8.88145485E-03 5.61019973E-05    3
-1.79581697E-07 1.51134768E-10-1.92992698E+04 1.78544852E-01                   4
NH(S)           20240128N   1H   1          S100.0     1500.0    500.0         1
 1.36084001E+00 9.32036809E-03-1.01187952E-05 5.55254292E-09-1.18251774E-12    2
-1.56413540E+04-8.59107145E+00-8.86342807E-01 5.66350530E-03 7.72998296E-05    3
-2.37006696E-07 1.99451580E-10-1.51670725E+04 3.24711958E+00                   4
TS1_NH3(S)      20240128N   1H   3          S100.0     1500.0    500.0         1
 1.02319701E+00 1.54699932E-02-1.32494701E-05 6.24624161E-09-1.21751112E-12    2
-1.07016905E+04-5.59557099E+00-7.16000396E-01 2.72508005E-02-4.59719931E-05    3
 5.00439144E-08-2.44868430E-11-1.04801596E+04 1.95145132E+00                   4
TS2_NH2(S)      20240128N   1H   2          S100.0     1500.0    500.0         1
 2.03238642E+00 9.68601163E-03-8.45893101E-06 3.99437932E-09-7.75224729E-13    2
-6.97132551E+03-1.05374416E+01-1.56078815E+00 3.57883790E-02-8.06040834E-05    3
 9.23843796E-08-4.03749840E-11-6.56508139E+03 4.69552005E+00                   4
TS3_NH(S)       20240128N   1H   1          S100.0     1500.0    500.0         1
 8.90737200E-01 8.94610765E-03-8.72176823E-06 4.14949052E-09-7.79602292E-13    2
-6.40750659E+03-5.87147336E+00-1.39310890E+00 1.48317081E-02 2.49281564E-05    3
-1.34997216E-07 1.32543928E-10-6.06246857E+03 4.88729357E+00                   4
TS4_N2(S)       20240128N   2               S100.0     1500.0    500.0         1
 2.05183448E+00 8.31545799E-03-9.68358519E-06 5.21859206E-09-1.07231908E-12    2
-6.10514753E+03-1.17759972E+01-1.95921519E+00 2.32638592E-02 9.93902993E-06    3
-1.32961455E-07 1.41480204E-10-5.51767185E+03 6.75419583E+00                   4
RU(T)           20240128Ru  1               S100.0     1500.0    814.3         1
 0.00000000E+00 0.00000000E+00 0.00000000E+00 0.00000000E+00 0.00000000E+00    2
 0.00000000E+00 0.00000000E+00 0.00000000E+00 0.00000000E+00 0.00000000E+00    3
 0.00000000E+00 0.00000000E+00 0.00000000E+00 0.00000000E+00                   4
RU(S)           20240128Ru  1               S100.0     1500.0    814.3         1
 0.00000000E+00 0.00000000E+00 0.00000000E+00 0.00000000E+00 0.00000000E+00    2
 0.00000000E+00 0.00000000E+00 0.00000000E+00 0.00000000E+00 0.00000000E+00    3
 0.00000000E+00 0.00000000E+00 0.00000000E+00 0.00000000E+00                   4
RU(B)           20240128Ru  1               S100.0     1500.0    814.3         1
 0.00000000E+00 0.00000000E+00 0.00000000E+00 0.00000000E+00 0.00000000E+00    2
 0.00000000E+00 0.00000000E+00 0.00000000E+00 0.00000000E+00 0.00000000E+00    3
 0.00000000E+00 0.00000000E+00 0.00000000E+00 0.00000000E+00                   4
END