THERMO ALL
       100       500      1500
CH3CH2CH3(S)    20240128C   3H   8          S300.0     1500.0    569.4         1
-7.45472937E-01 4.42859642E-02-2.88892754E-05 1.02627165E-08-1.58914533E-12    2
-2.34250757E+04 6.33646229E+00 1.12292336E+01-5.73311249E-02 2.89884593E-04    3
-4.30561128E-07 2.25851926E-10-2.45248433E+04-4.23034255E+01                   4
CH2CH3(S)       20240128C   2H   5          S300.0     1500.0    593.9         1
 3.15732219E-01 2.79064947E-02-1.91559331E-05 7.27360425E-09-1.20202078E-12    2
-1.45694191E+04-1.15689894E+00 4.01889436E+00-9.85361054E-03 1.09844145E-04    3
-1.78123120E-07 9.56788111E-11-1.47823664E+04-1.52001369E+01                   4
CH3(S)          20240128C   1H   3          S300.0     1500.0    642.9         1
 1.68184395E+00 1.21093716E-02-6.95205723E-06 2.21590141E-09-3.21144826E-13    2
-7.76948999E+03-7.31000090E+00 1.33487925E+00 9.20674334E-03 1.18417144E-05    3
-3.03867297E-08 1.78653372E-11-7.61829203E+03-4.97330845E+00                   4
CH3CHCH3(S)     20240128C   3H   7          S300.0     1500.0    593.9         1
-4.25028139E-01 4.16054287E-02-2.86143846E-05 1.07613765E-08-1.75015859E-12    2
-2.12183526E+04 2.56198400E+00 6.97420187E+00-2.58398815E-02 1.89193896E-04    3
-2.92274942E-07 1.53423871E-10-2.17948474E+04-2.67177426E+01                   4
CH2CH2CH3(S)    20240128C   3H   7          S300.0     1500.0    593.9         1
-9.63733088E-01 4.30986762E-02-3.03534277E-05 1.16413425E-08-1.91715740E-12    2
-1.88207509E+04 5.01142801E+00 6.03273136E+00-2.18635794E-02 1.81347439E-04    3
-2.84299596E-07 1.50001419E-10-1.93420697E+04-2.24877343E+01                   4
CH2(S)          20240128C   1H   2          S300.0     1500.0    740.8         1
 1.77733829E+00 9.35045377E-03-6.08210769E-06 2.17744725E-09-3.39484497E-13    2
-2.27167736E+03-1.04709442E+01-2.80191561E+00 3.35075424E-02-5.47576872E-05    3
 4.65575077E-08-1.57712060E-11-1.56455487E+03 1.03959534E+01                   4
CHCH3(S)        20240128C   2H   4          S300.0     1500.0    618.4         1
 7.93647925E-01 2.41356911E-02-1.70728557E-05 6.58176784E-09-1.08928228E-12    2
-9.11696844E+03-5.00315135E+00 1.50923268E+00 9.24459278E-03 4.46588717E-05    3
-8.93877783E-08 5.07250928E-11-9.00688199E+03-6.52651671E+00                   4
CH2CH2(S)       20240128C   2H   4          S300.0     1500.0    642.9         1
 8.61713707E-01 2.40923916E-02-1.73659339E-05 6.85984963E-09-1.15881881E-12    2
-9.44134616E+03-4.93518280E+00 2.26268255E-01 1.70545677E-02 2.49550722E-05    3
-6.51954794E-08 3.87052677E-11-9.12522102E+03-3.68114082E-01                   4
CH3CH2O(S)      20240128C   2H   5O   1     S300.0     1500.0    593.9         1
 4.48497083E-01 3.41989515E-02-2.47012793E-05 9.58234572E-09-1.57831190E-12    2
-2.76372862E+04-1.13374474E+00 6.20435435E+00-1.79787919E-02 1.43629557E-04    3
-2.24866029E-07 1.18723518E-10-2.80934524E+04-2.39639910E+01                   4
CH3O(S)         20240128C   1H   3O   1     S300.0     1500.0    569.4         1
 1.27504080E+00 1.93417133E-02-1.35362994E-05 5.10916038E-09-8.25515761E-13    2
-2.11057557E+04-4.97474111E+00 5.28210820E+00-1.64382847E-02 1.02665276E-04    3
-1.59700660E-07 8.58756655E-11-2.14445815E+04-2.09986536E+01                   4
CH3CCH3(S)      20240128C   3H   6          S300.0     1500.0    569.4         1
 7.39727242E-01 3.60243306E-02-2.48513819E-05 9.39071143E-09-1.53706044E-12    2
-1.48556189E+04-3.36405169E+00 8.19658967E+00-3.28003225E-02 2.03156771E-04    3
-3.18141834E-07 1.72228862E-10-1.54481283E+04-3.28592409E+01                   4
CH2CHCH3(S)     20240128C   3H   6          S300.0     1500.0    618.4         1
-5.44600237E-02 3.84519107E-02-2.77376674E-05 1.08977820E-08-1.82898170E-12    2
-1.60538462E+04-3.61389971E-01 3.26082412E+00 3.70573968E-04 1.06521560E-04    3
-1.82343953E-07 9.78934618E-11-1.61446783E+04-1.22041396E+01                   4
CHCH2CH3(S)     20240128C   3H   6          S300.0     1500.0    593.9         1
-6.20836699E-01 3.98447883E-02-2.89953360E-05 1.13917215E-08-1.90357337E-12    2
-1.33407867E+04 1.82083077E+00 3.99465104E+00-7.34247711E-03 1.32522392E-04    3
-2.21093970E-07 1.19730283E-10-1.36047953E+04-1.56669755E+01                   4
CH2CH2CH2(S)    20240128C   3H   6          S300.0     1500.0    618.4         1
-1.07161383E+00 4.14969633E-02-3.12463574E-05 1.26768765E-08-2.16928469E-12    2
-1.42394187E+04 3.14811097E+00 1.28567445E+00 9.01417883E-03 9.01307823E-05    3
-1.66657297E-07 9.16202920E-11-1.41940004E+04-4.41585017E+00                   4
CH3CH2CH2O(S)   20240128C   3H   7O   1     S300.0     1500.0    569.4         1
-1.01434562E+00 5.01039804E-02-3.69118131E-05 1.45750592E-08-2.43496324E-12    2
-3.18519121E+04 5.92204876E+00 9.36945908E+00-4.13840707E-02 2.56753572E-04    3
-3.97537810E-07 2.12270884E-10-3.27447865E+04-3.57535104E+01                   4
CH3CH2OH(S)     20240128C   2H   6O   1     S300.0     1500.0    569.4         1
 1.05655972E+00 3.61120611E-02-2.56763322E-05 1.00637979E-08-1.69926568E-12    2
-3.73218660E+04-2.06733342E+00 9.84495114E+00-4.12059752E-02 2.22564570E-04    3
-3.38708945E-07 1.80305969E-10-3.80812063E+04-3.73637598E+01                   4
CH3OH(S)        20240128C   1H   4O   1     S300.0     1500.0    569.4         1
 2.01981359E+00 2.07233862E-02-1.37561190E-05 5.12468565E-09-8.40968540E-13    2
-3.08177002E+04-6.56994724E+00 8.08645949E+00-3.13882651E-02 1.51368277E-04    3
-2.25243431E-07 1.18966457E-10-3.13657754E+04-3.11283611E+01                   4
CH3CH2CH2OH(S)  20240128C   3H   8O   1     S300.0     1500.0    569.4         1
-2.69572833E-01 5.14856533E-02-3.71316326E-05 1.45905845E-08-2.45041602E-12    2
-4.15638566E+04 4.32684263E+00 1.21738104E+01-5.63340510E-02 3.05456573E-04    3
-4.63080580E-07 2.45361676E-10-4.26659805E+04-4.58832180E+01                   4
CH(S)           20240128C   1H   1          S300.0     1500.0    642.9         1
 1.21175540E+00 8.29036996E-03-7.37151515E-06 3.42931713E-09-6.46561494E-13    2
-4.55720856E+03-8.06127503E+00-4.47280079E+00 4.24688307E-02-8.74627235E-05    3
 9.00164001E-08-3.69291256E-11-3.77291497E+03 1.71534953E+01                   4
CH2OH(S)        20240128C   1H   3O   1     S300.0     1500.0    642.9         1
 2.02569020E+00 1.84106093E-02-1.36955733E-05 5.60893781E-09-9.75349501E-13    2
-3.07654570E+04-9.48638741E+00 1.80630257E+00 1.19722701E-02 1.94979201E-05    3
-4.83553915E-08 2.81457772E-11-3.05689002E+04-7.25224647E+00                   4
CH2O(S)         20240128C   1H   2O   1     S300.0     1500.0    642.9         1
 1.88753072E+00 1.57011944E-02-1.21594362E-05 5.00536558E-09-8.59638538E-13    2
-2.05129735E+04-8.82336048E+00 1.12222781E+00 1.52288081E-02 1.04012072E-06    3
-2.15746083E-08 1.47928225E-11-2.03011116E+04-4.61322892E+00                   4
CCH3(S)         20240128C   2H   3          S300.0     1500.0    618.4         1
 1.26119792E+00 1.96664337E-02-1.42515783E-05 5.62827498E-09-9.49485963E-13    2
-1.13187952E+04-6.36468400E+00 1.62858365E+00 9.78241000E-03 2.78487644E-05    3
-6.00158045E-08 3.43691795E-11-1.12136187E+04-6.78023229E+00                   4
CHCH2(S)        20240128C   2H   3          S300.0     1500.0    667.3         1
 1.22543183E+00 2.08739893E-02-1.60404856E-05 6.61188601E-09-1.14124551E-12    2
-3.85691508E+03-8.47712759E+00-2.25295629E+00 3.39632905E-02-2.85166053E-05    3
 1.97565140E-09 7.29915492E-12-3.20786030E+03 8.22772487E+00                   4
CH3CHOH(S)      20240128C   2H   5O   1     S300.0     1500.0    618.4         1
 1.45405092E+00 3.22227267E-02-2.37257443E-05 9.55281226E-09-1.63747737E-12    2
-3.87253803E+04-6.99891330E+00 3.92985046E+00 3.08475712E-03 7.96221062E-05    3
-1.39318411E-07 7.50949695E-11-3.87768098E+04-1.57233733E+01                   4
CH3CHO(S)       20240128C   2H   4O   1     S300.0     1500.0    422.4         1
 1.48495013E+00 2.79729022E-02-2.00828572E-05 7.78286377E-09-1.28996370E-12    2
-3.02023301E+04-3.04633283E+00 6.63644900E+00-1.16661335E-02 8.84707894E-05    3
-1.12039711E-07 3.81752533E-11-3.07216700E+04-2.44366198E+01                   4
CH2CH2OH(S)     20240128C   2H   5O   1     S300.0     1500.0    618.4         1
 1.07192189E+00 3.40291313E-02-2.58828187E-05 1.06744892E-08-1.85493260E-12    2
-3.27650723E+04-4.52649676E+00 4.11495478E+00-5.96484642E-04 9.57932815E-05    3
-1.64245746E-07 8.83963082E-11-3.28549343E+04-1.54484506E+01                   4
CH2CH2O(S)      20240128C   2H   4O   1     S300.0     1500.0    618.4         1
 2.77495036E-01 3.28388959E-02-2.59331385E-05 1.08246147E-08-1.87679373E-12    2
-2.30430915E+04-2.69054410E+00 1.61522434E+00 1.13661505E-02 5.78917424E-05    3
-1.15773323E-07 6.52594111E-11-2.29581818E+04-6.51261154E+00                   4
CH2CCH3(S)      20240128C   3H   5          S300.0     1500.0    618.4         1
 1.10840968E+00 3.29658271E-02-2.40578295E-05 9.54233175E-09-1.61160354E-12    2
-9.58029961E+03-6.52076558E+00 2.91834238E+00 6.94138114E-03 7.50638696E-05    3
-1.38998518E-07 7.70230264E-11-9.52863190E+03-1.21785216E+01                   4
CHCHCH3(S)      20240128C   3H   5          S300.0     1500.0    618.4         1
 1.48092432E-01 3.58323416E-02-2.72304511E-05 1.11376816E-08-1.91864775E-12    2
-1.04354201E+04-3.11554915E+00 8.07580089E-01 1.70658011E-02 5.36675814E-05    3
-1.15902809E-07 6.67712531E-11-1.02297384E+04-3.71426083E+00                   4
CH2CHCH2(S)     20240128C   3H   5          S300.0     1500.0    642.9         1
 4.37004522E-01 3.48512958E-02-2.62528301E-05 1.06731691E-08-1.82876897E-12    2
-1.09149634E+04-3.87628705E+00-6.42116122E-02 2.27143544E-02 3.80482954E-05    3
-9.52012768E-08 5.58514224E-11-1.05252126E+04 7.93278325E-01                   4
CH3CHCH2OH(S)   20240128C   3H   7O   1     S300.0     1500.0    593.9         1
 1.18410849E-01 4.85425723E-02-3.64836341E-05 1.48590628E-08-2.55930865E-12    2
-3.93706525E+04 2.25505632E-01 7.79144171E+00-2.35824197E-02 2.00162380E-04    3
-3.17439624E-07 1.68595133E-10-3.99258434E+04-2.97995885E+01                   4
CH3CHCH2O(S)    20240128C   3H   6O   1     S300.0     1500.0    593.9         1
-6.49107703E-01 4.72493195E-02-3.63894699E-05 1.49210582E-08-2.56140907E-12    2
-2.96541550E+04 1.93079133E+00 5.14702476E+00-1.02154780E-02 1.57241338E-04    3
-2.61134394E-07 1.40953452E-10-3.00173742E+04-2.02952810E+01                   4
CCH2CH3(S)      20240128C   3H   5          S300.0     1500.0    618.4         1
 2.46198293E-02 3.46944232E-02-2.52187902E-05 9.85554897E-09-1.63312740E-12    2
-1.55788664E+04-4.04617785E-01 3.35738784E+00 5.38928710E-04 8.94636251E-05    3
-1.50761631E-07 7.98173526E-11-1.57502360E+04-1.29479381E+01                   4
CHCH2CH2(S)     20240128C   3H   5          S300.0     1500.0    642.9         1
-5.10297063E-01 3.74193915E-02-2.87481002E-05 1.17396812E-08-2.00305267E-12    2
-8.80474914E+03-1.10667690E+00-1.12534469E+00 2.70617652E-02 2.90623733E-05    3
-8.49495581E-08 5.10739093E-11-8.42579512E+03 3.87938068E+00                   4
CH3CH2CHOH(S)   20240128C   3H   7O   1     S300.0     1500.0    618.4         1
 2.17472823E-01 4.72507162E-02-3.46929563E-05 1.37800862E-08-2.32111880E-12    2
-4.29854515E+04-1.03884709E+00 5.65865464E+00-6.15872417E-03 1.41236967E-04    3
-2.30064238E-07 1.20543143E-10-4.33134271E+04-2.18910791E+01                   4
CH3CH2CHO(S)    20240128C   3H   6O   1     S300.0     1500.0    569.4         1
 4.35576846E-01 4.25824556E-02-3.03073252E-05 1.15184718E-08-1.85902391E-12    2
-3.29040703E+04 1.46379635E+00 9.09369192E+00-3.22224044E-02 2.07103577E-04    3
-3.19315201E-07 1.69687694E-10-3.36764268E+04-3.35105152E+01                   4
CH2CH2CH2OH(S)  20240128C   3H   7O   1     S300.0     1500.0    593.9         1
-4.20294100E-01 5.00358197E-02-3.82226772E-05 1.57390287E-08-2.72630746E-12    2
-3.69730508E+04 2.67494964E+00 6.84997121E+00-1.96061176E-02 1.92315924E-04    3
-3.09464278E-07 1.65172680E-10-3.74730657E+04-2.55695802E+01                   4
CH2CH2CH2O(S)   20240128C   3H   6O   1     S300.0     1500.0    618.4         1
-9.59083058E-01 4.78668854E-02-3.69003504E-05 1.50518887E-08-2.56043517E-12    2
-2.73031627E+04 3.26952211E+00 3.34402853E+00 2.12266917E-03 1.19506603E-04    3
-2.06519150E-07 1.10707584E-10-2.74947991E+04-1.26803174E+01                   4
C(S)            20240128C   1               S300.0     1500.0    618.4         1
 7.05804650E-01 5.86663771E-03-6.29016787E-06 3.16125024E-09-6.12289695E-13    2
 6.93227935E+03-4.77942676E+00-3.02744177E+00 3.02811095E-02-6.89338050E-05    3
 7.73967572E-08-3.45813267E-11 7.41108365E+03 1.14848041E+01                   4
CHOH(S)         20240128C   1H   2O   1     S300.0     1500.0    716.3         1
 2.55638781E+00 1.38434763E-02-1.02220141E-05 4.03712595E-09-6.68491805E-13    2
-2.92990840E+04-1.36366097E+01-2.31003055E-01 2.57542545E-02-2.77875198E-05    3
 1.35023343E-08-1.47389583E-12-2.87987603E+04-4.43965993E-01                   4
CCH2(S)         20240128C   2H   2          S300.0     1500.0    814.3         1
 2.53985436E+00 1.30112603E-02-8.45294250E-06 2.81880345E-09-3.85568195E-13    2
-1.41800539E+03-1.41071364E+01-1.82800921E+00 3.27416862E-02-4.20642571E-05    3
 2.83331640E-08-7.63812955E-12-6.38465665E+02 6.44985285E+00                   4
CH3COH(S)       20240128C   2H   4O   1     S300.0     1500.0    642.9         1
 2.19997940E+00 2.76128013E-02-2.05639333E-05 8.27186538E-09-1.40531174E-12    2
-3.66071357E+04-1.13046138E+01 2.28278317E+00 1.69199494E-02 2.85856979E-05    3
-6.92132965E-08 3.99389806E-11-3.64028808E+04-1.00253966E+01                   4
CH3CO(S)        20240128C   2H   3O   1     S300.0     1500.0    618.4         1
 2.19378733E+00 2.26895966E-02-1.62785041E-05 6.27214841E-09-1.02697916E-12    2
-3.51493528E+04-9.24140136E+00 3.29155685E+00 9.18747726E-03 3.23873668E-05    3
-6.44283313E-08 3.56148784E-11-3.51606537E+04-1.30189698E+01                   4
CHCH(S)         20240128C   2H   2          S300.0     1500.0    765.3         1
 1.72126711E+00 1.59199607E-02-1.23539956E-05 5.06830740E-09-8.62610703E-13    2
-2.94763349E+02-1.02928252E+01-2.90639634E+00 3.77171601E-02-5.07198693E-05    3
 3.48222939E-08-9.37761567E-12 4.91291164E+02 1.12745769E+01                   4
CHCH2OH(S)      20240128C   2H   4O   1     S300.0     1500.0    618.4         1
 1.41046527E+00 3.07919088E-02-2.45481004E-05 1.04391252E-08-1.84454529E-12    2
-2.72842210E+04-7.69595574E+00 2.21586586E+00 1.25755871E-02 5.17901605E-05    3
-1.08564614E-07 6.24526400E-11-2.71289141E+04-9.17378297E+00                   4
CH2CHOH(S)      20240128C   2H   4O   1     S300.0     1500.0    667.3         1
 2.13775723E+00 2.79092025E-02-2.12684941E-05 8.74929952E-09-1.51018773E-12    2
-3.36271368E+04-1.14538948E+01 4.46147349E-01 2.68832207E-02 6.27262172E-06    3
-4.50915625E-08 2.92871856E-11-3.31438244E+04-2.09405405E+00                   4
CHCH2O(S)       20240128C   2H   3O   1     S300.0     1500.0    642.9         1
 7.79659886E-01 2.89844579E-02-2.37438301E-05 1.00737732E-08-1.75194239E-12    2
-1.75961595E+04-6.65714994E+00-6.52358388E-01 2.80476789E-02 1.60481240E-06    3
-4.13579121E-08 2.88045254E-11-1.72017955E+04 1.21648404E+00                   4
CH2CHO(S)       20240128C   2H   3O   1     S300.0     1500.0    618.4         1
 1.22348220E+00 2.68108701E-02-2.10266198E-05 8.61735674E-09-1.46169675E-12    2
-2.59381790E+04-4.81879998E+00 1.86928337E+00 1.47362699E-02 2.79282581E-05    3
-6.66937001E-08 3.89256796E-11-2.58648995E+04-6.40303717E+00                   4
CHCCH3(S)       20240128C   3H   4          S300.0     1500.0    618.4         1
 1.17724512E+00 2.95385237E-02-2.23874595E-05 9.16507784E-09-1.58257638E-12    2
-5.92408282E+03-6.23184074E+00 2.05370952E+00 1.27593064E-02 4.54480142E-05    3
-9.45631767E-08 5.36913001E-11-5.81251955E+03-8.30355155E+00                   4
CH2CCH2(S)      20240128C   3H   4          S300.0     1500.0    667.3         1
 1.68031010E+00 2.91793002E-02-2.23032473E-05 9.13914277E-09-1.56779543E-12    2
-4.34953174E+03-1.06784384E+01-1.18661961E+00 3.48973805E-02-9.33897961E-06    3
-3.06819516E-08 2.41859193E-11-3.70116154E+03 3.93133242E+00                   4
CH3CCH2OH(S)    20240128C   3H   6O   1     S300.0     1500.0    593.9         1
 1.43983678E+00 4.23524449E-02-3.18551299E-05 1.29544430E-08-2.22530580E-12    2
-3.30392790E+04-6.45874712E+00 7.98237066E+00-2.03334255E-02 1.76835876E-04    3
-2.83731172E-07 1.52257365E-10-3.34970305E+04-3.19076677E+01                   4
CH3CCH2O(S)     20240128C   3H   5O   1     S300.0     1500.0    593.9         1
 6.72318228E-01 4.10591921E-02-3.17609657E-05 1.30164384E-08-2.22740622E-12    2
-2.33227815E+04-4.75346143E+00 5.33795371E+00-6.96648387E-03 1.33914834E-04    3
-2.27425943E-07 1.24615684E-10-2.35885613E+04-2.24033601E+01                   4
CCHCH3(S)       20240128C   3H   4          S300.0     1500.0    642.9         1
 7.31159238E-01 3.05146925E-02-2.29210113E-05 9.19806662E-09-1.55141068E-12    2
-7.83060953E+03-5.12020629E+00 7.36834277E-01 2.06384676E-02 2.30811806E-05    3
-6.31770847E-08 3.68377090E-11-7.62007768E+03-3.54324065E+00                   4
CHCHCH2(S)      20240128C   3H   4          S300.0     1500.0    667.3         1
 8.76669356E-01 3.13504927E-02-2.45412606E-05 1.01948495E-08-1.76053391E-12    2
-5.34653847E+03-7.78940307E+00-2.67406157E+00 4.08445521E-02-1.96126001E-05    3
-2.17821538E-08 2.10233468E-11-4.59691149E+03 9.90694650E+00                   4
CH3CHCHOH(S)    20240128C   3H   6O   1     S300.0     1500.0    618.4         1
 9.44486347E-01 4.33017236E-02-3.30558377E-05 1.36334624E-08-2.36678949E-12    2
-4.01814068E+04-5.52661090E+00 3.78235298E+00 7.38281001E-03 9.74816734E-05    3
-1.76593454E-07 9.63196702E-11-4.01885859E+04-1.51263286E+01                   4
CH3CHCHO(S)     20240128C   3H   5O   1     S300.0     1500.0    593.9         1
 8.94951768E-01 3.94976940E-02-2.97160976E-05 1.18867060E-08-1.99675908E-12    2
-3.08110562E+04-2.76940360E+00 5.66059374E+00-5.83687033E-03 1.20283693E-04    3
-2.00117593E-07 1.07772138E-10-3.11484136E+04-2.13463439E+01                   4
CH2CHCH2OH(S)   20240128C   3H   6O   1     S300.0     1500.0    618.4         1
 5.62357317E-01 4.51081283E-02-3.52129121E-05 1.47551393E-08-2.58424471E-12    2
-3.42210988E+04-3.05419436E+00 3.96745729E+00 3.70156825E-03 1.13652849E-04    3
-2.01520789E-07 1.09621009E-10-3.42667104E+04-1.48514059E+01                   4
CH2CHCH2O(S)    20240128C   3H   5O   1     S300.0     1500.0    618.4         1
-2.32069534E-01 4.39178929E-02-3.52632319E-05 1.49052648E-08-2.60610585E-12    2
-2.44991180E+04-1.21824170E+00 1.46772686E+00 1.56642034E-02 7.57513096E-05    3
-1.53048366E-07 8.64841118E-11-2.43699579E+04-5.91556683E+00                   4
CCH2CH2(S)      20240128C   3H   4          S300.0     1500.0    642.9         1
-1.03489105E-01 3.29690318E-02-2.58925233E-05 1.07439001E-08-1.85143436E-12    2
-6.30891764E+03-1.78054917E+00-8.50669139E-01 2.63525653E-02 1.55283945E-05    3
-5.98760203E-08 3.70228397E-11-5.96787329E+03 3.33924851E+00                   4
CH3CH2COH(S)    20240128C   3H   6O   1     S300.0     1500.0    618.4         1
 7.97513597E-01 4.32665550E-02-3.23975719E-05 1.30217565E-08-2.20500259E-12    2
-4.08328178E+04-4.53635990E+00 4.39207962E+00 4.05274058E-03 1.02884338E-04    3
-1.79303405E-07 9.62406248E-11-4.09708514E+04-1.76948854E+01                   4
CH3CH2CO(S)     20240128C   3H   5O   1     S300.0     1500.0    593.9         1
 8.98649963E-01 3.82869074E-02-2.79480164E-05 1.09219349E-08-1.80759182E-12    2
-3.78037655E+04-3.55067206E+00 5.24772303E+00-4.02261378E-03 1.13186174E-04    3
-1.88978955E-07 1.01617568E-10-3.80908644E+04-2.03479858E+01                   4
CHCH2CH(S)      20240128C   3H   4          S300.0     1500.0    642.9         1
-1.79303614E-01 3.42106489E-02-2.74528150E-05 1.15281027E-08-1.99794704E-12    2
-3.32233279E+03-4.23935340E+00-2.90324585E+00 3.90796704E-02-1.09009317E-05    3
-3.54296288E-08 2.85870992E-11-2.70975306E+03 9.67573876E+00                   4
CHCH2CH2OH(S)   20240128C   3H   6O   1     S300.0     1500.0    618.4         1
 1.73887173E-01 4.58198983E-02-3.55153124E-05 1.46663992E-08-2.52818672E-12    2
-3.15442922E+04-1.73588953E+00 3.94467004E+00 3.33210576E-03 1.13405021E-04    3
-1.99310441E-07 1.07900813E-10-3.16655314E+04-1.53414888E+01                   4
CH2CH2CHOH(S)   20240128C   3H   6O   1     S300.0     1500.0    642.9         1
 2.06760341E-01 4.52927144E-02-3.51050845E-05 1.45322400E-08-2.51161426E-12    2
-3.84249057E+04-3.37845329E+00 1.19898031E+00 2.18190015E-02 6.08156703E-05    3
-1.29984652E-07 7.26970523E-11-3.81877887E+04-4.93741427E+00                   4
CHCH2CH2O(S)    20240128C   3H   5O   1     S300.0     1500.0    618.4         1
-6.20539679E-01 4.46296629E-02-3.55656322E-05 1.48165247E-08-2.55004786E-12    2
-2.18223115E+04 1.00063137E-01 1.44493961E+00 1.52947409E-02 7.55034821E-05    3
-1.50838018E-07 8.47639160E-11-2.17687789E+04-6.40564979E+00                   4
CH2CH2CHO(S)    20240128C   3H   5O   1     S300.0     1500.0    618.4         1
 3.97203096E-01 4.07070717E-02-3.08071344E-05 1.23092695E-08-2.05530759E-12    2
-2.83364381E+04-7.34933377E-01 3.56753378E+00 6.38707936E-03 8.75678230E-05    3
-1.56293783E-07 8.44541972E-11-2.84665167E+04-1.23940129E+01                   4
COH(S)          20240128C   1O   1H   1     S300.0     1500.0    814.3         1
 3.81560061E+00 7.91986250E-03-6.35653851E-06 2.71206244E-09-4.73687070E-13    2
-3.16144301E+04-1.83484116E+01 6.84033347E-01 2.27990698E-02-3.34602382E-05    3
 2.51540682E-08-7.59533676E-12-3.10761442E+04-3.74610632E+00                   4
CCH(S)          20240128C   2H   1          S300.0     1500.0    691.8         1
 2.35591222E+00 1.13091414E-02-9.38761073E-06 4.02325300E-09-7.03604278E-13    2
 1.16671100E+04-1.30448657E+01-1.48153471E+00 3.27806443E-02-5.60139070E-05    3
 5.05361646E-08-1.86209494E-11 1.22340619E+04 4.24543363E+00                   4
CCH2OH(S)       20240128C   2H   3O   1     S300.0     1500.0    642.9         1
 2.06552753E+00 2.56153146E-02-2.07474519E-05 8.89488862E-09-1.57357175E-12    2
-2.95249196E+04-9.97102875E+00 1.97580332E+00 1.65363821E-02 2.29989379E-05    3
-6.09200053E-08 3.58445232E-11-2.93060328E+04-8.00891016E+00                   4
CH2COH(S)       20240128C   2H   3O   1     S300.0     1500.0    691.8         1
 2.79144387E+00 2.37747617E-02-1.87644155E-05 7.85520531E-09-1.36111445E-12    2
-3.13818685E+04-1.55639969E+01-1.23020560E+00 3.92121161E-02-3.58967872E-05    3
 8.57207738E-09 4.31670899E-12-3.06239689E+04 3.75063278E+00                   4
CCH2O(S)        20240128C   2H   2O   1     S300.0     1500.0    667.3         1
 1.32662905E+00 2.40129218E-02-2.01756588E-05 8.65286552E-09-1.50682677E-12    2
-1.51298676E+04-8.01602625E+00-5.52042895E-01 2.89689154E-02-1.75209749E-05    3
-7.94449429E-09 1.01857867E-11-1.47292716E+04 1.36755367E+00                   4
CH2CO(S)        20240128C   2H   2O   1     S300.0     1500.0    716.3         1
 2.62523139E+00 1.92262853E-02-1.45418089E-05 5.72904498E-09-9.33622868E-13    2
-2.91014171E+04-1.30465366E+01-2.91336209E-01 3.16594927E-02-3.27601475E-05    3
 1.53221268E-08-1.57604068E-12-2.85771752E+04 7.62199086E-01                   4
CHCHOH(S)       20240128C   2H   3O   1     S300.0     1500.0    691.8         1
 2.50615678E+00 2.46831204E-02-1.99441157E-05 8.50797782E-09-1.49522559E-12    2
-2.80443298E+04-1.50215251E+01-1.86538933E+00 4.21959833E-02-4.16205415E-05    3
 1.35909885E-08 2.62785940E-12-2.72402762E+04 5.83987872E+00                   4
CHCHO(S)        20240128C   2H   2O   1     S300.0     1500.0    667.3         1
 1.87714106E+00 2.19897536E-02-1.77484936E-05 7.33890069E-09-1.23996682E-12    2
-1.93650537E+04-8.07126844E+00 4.15914793E-01 2.65160009E-02-1.84114694E-05    3
-1.92221505E-09 6.25326336E-12-1.90712685E+04-8.95477191E-01                   4
CCCH3(S)        20240128C   3H   3          S300.0     1500.0    618.4         1
 2.31729892E+00 2.31003084E-02-1.69828996E-05 6.69617131E-09-1.11621774E-12    2
 5.92779120E+03-1.14690925E+01 3.09108249E+00 1.13970088E-02 2.80724885E-05    3
-6.10993997E-08 3.48728596E-11 5.96310444E+03-1.37915172E+01                   4
CHCCH2(S)       20240128C   3H   3          S300.0     1500.0    691.8         1
 1.88394110E+00 2.52626189E-02-1.99778926E-05 8.37848324E-09-1.45585838E-12    2
-7.22497543E+02-1.10517065E+01-1.86770213E+00 3.89363213E-02-3.26137813E-05    3
 3.90246903E-09 6.48338138E-12 8.66906153E-02 7.08499337E+00                   4
CH3CCHOH(S)     20240128C   3H   5O   1     S300.0     1500.0    618.4         1
 2.10735605E+00 3.78156400E-02-2.93759999E-05 1.22780122E-08-2.14941133E-12    2
-3.37078603E+04-1.16859865E+01 3.43987124E+00 1.39536172E-02 6.60239830E-05    3
-1.33248018E-07 7.54492349E-11-3.35725395E+04-1.51007106E+01                   4
CH3CCHO(S)      20240128C   3H   4O   1     S300.0     1500.0    593.9         1
 1.84581060E+00 3.36582003E-02-2.53172359E-05 1.00461147E-08-1.66813460E-12    2
-2.42085074E+04-7.92135342E+00 5.45600284E+00-1.88597983E-03 9.51989188E-05    3
-1.63718027E-07 8.98605970E-11-2.44473476E+04-2.18364412E+01                   4
CH2CCH2OH(S)    20240128C   3H   5O   1     S300.0     1500.0    618.4         1
 1.72522702E+00 3.96220447E-02-3.15330742E-05 1.33996891E-08-2.36686655E-12    2
-2.77475522E+04-9.21356997E+00 3.62497556E+00 1.02723754E-02 8.21951584E-05    3
-1.58175353E-07 8.87505736E-11-2.76506640E+04-1.48257879E+01                   4
CH2CCH2O(S)     20240128C   3H   4O   1     S300.0     1500.0    618.4         1
 9.30800170E-01 3.84318092E-02-3.15833940E-05 1.35498146E-08-2.38872769E-12    2
-1.80255715E+04-7.37761731E+00 1.12524512E+00 2.22350105E-02 4.42936192E-05    3
-1.09702930E-07 6.56136765E-11-1.77539115E+04-5.88994885E+00                   4
CCHCH2(S)       20240128C   3H   3          S300.0     1500.0    716.3         1
 1.56930848E+00 2.54590417E-02-1.94354475E-05 7.78338178E-09-1.29180986E-12    2
 1.91737689E+03-9.95047870E+00-2.32338506E+00 4.05581535E-02-3.74935223E-05    3
 1.18143127E-08 1.96992715E-12 2.65609216E+03 8.74916149E+00                   4
CH3CHCOH(S)     20240128C   3H   5O   1     S300.0     1500.0    642.9         1
 1.63853876E+00 3.89921524E-02-3.02821992E-05 1.25627814E-08-2.17583331E-12    2
-3.79430246E+04-9.82681052E+00 1.48736104E+00 2.56341988E-02 3.44685828E-05    3
-9.09610698E-08 5.33103822E-11-3.76180048E+04-6.84302872E+00                   4
CH3CHCO(S)      20240128C   3H   4O   1     S300.0     1500.0    618.4         1
 1.87672839E+00 3.34469193E-02-2.52951547E-05 1.02123194E-08-1.73232039E-12    2
-3.38839713E+04-8.93662452E+00 3.24881709E+00 1.37003426E-02 4.95884776E-05    3
-1.01417352E-07 5.70518234E-11-3.38417244E+04-1.32119145E+01                   4
CHCHCH(S)       20240128C   3H   3          S300.0     1500.0    691.8         1
 1.25049271E+00 2.81045222E-02-2.31900219E-05 9.93767574E-09-1.74211853E-12    2
 2.35107154E+02-1.13836215E+01-4.98687329E+00 5.61690280E-02-6.75451482E-05    3
 3.69578727E-08-5.66672502E-12 1.30674849E+03 1.78459602E+01                   4
CHCHCH2OH(S)    20240128C   3H   5O   1     S300.0     1500.0    642.9         1
 1.04213352E+00 4.14428115E-02-3.32577643E-05 1.41216658E-08-2.47997442E-12    2
-2.86601421E+04-7.15895895E+00 9.24096453E-01 2.60169425E-02 4.11272179E-05    3
-1.05078020E-07 6.16658278E-11-2.83031419E+04-4.03236441E+00                   4
CH2CHCHOH(S)    20240128C   3H   5O   1     S300.0     1500.0    642.9         1
 1.48505538E+00 3.95158761E-02-3.13145292E-05 1.32541494E-08-2.33222493E-12    2
-3.50527036E+04-9.28073993E+00 4.82212222E-01 2.94894960E-02 2.98382874E-05    3
-9.07164416E-08 5.49877554E-11-3.45711641E+04-2.22715854E+00                   4
CHCHCH2O(S)     20240128C   3H   4O   1     S300.0     1500.0    642.9         1
 2.18219252E-01 4.03638090E-02-3.34620960E-05 1.43646892E-08-2.52246396E-12    2
-1.89320485E+04-5.17934663E+00-1.44778052E+00 3.67619284E-02 7.48769729E-06    3
-6.31056854E-08 4.21759270E-11-1.84169195E+04 4.39885191E+00                   4
CH2CHCHO(S)     20240128C   3H   4O   1     S300.0     1500.0    618.4         1
 1.23858210E+00 3.64473062E-02-2.89840226E-05 1.21113381E-08-2.09536455E-12    2
-2.56410605E+04-5.56196744E+00 2.18296301E+00 1.80854585E-02 4.57899559E-05    3
-1.02949099E-07 5.95816607E-11-2.55173409E+04-7.75899319E+00                   4
CCH2CH(S)       20240128C   3H   3          S300.0     1500.0    667.3         1
 3.83227412E-01 2.90981498E-02-2.36676503E-05 9.96891138E-09-1.72139294E-12    2
 1.01894762E+03-5.51757057E+00-2.81630693E+00 4.02178353E-02-3.12087974E-05    3
 4.40558741E-11 8.78283940E-12 1.63919812E+03 1.00109259E+01                   4
CCH2CH2OH(S)    20240128C   3H   5O   1     S300.0     1500.0    618.4         1
 6.41437170E-01 4.13506408E-02-3.26940349E-05 1.37129063E-08-2.38839041E-12    2
-3.37461189E+04-3.09742218E+00 4.06402101E+00 3.86992299E-03 9.65949139E-05    3
-1.69938467E-07 9.15448997E-11-3.38722681E+04-1.55952044E+01                   4
CH2CH2COH(S)    20240128C   3H   5O   1     S300.0     1500.0    642.9         1
 7.80972264E-01 4.13305409E-02-3.28401440E-05 1.37922736E-08-2.39957571E-12    2
-3.62710636E+04-6.84756853E+00 4.90566751E-02 3.09195032E-02 2.63516370E-05    3
-8.51543930E-08 5.17219937E-11-3.58548204E+04-1.20163017E+00                   4
CCH2CH2O(S)     20240128C   3H   4O   1     S300.0     1500.0    618.4         1
-1.52989681E-01 4.01604054E-02-3.27443547E-05 1.38630318E-08-2.41025155E-12    2
-2.40241382E+04-1.26146951E+00 1.56429058E+00 1.58325581E-02 5.86933747E-05    3
-1.21466044E-07 6.84080027E-11-2.39755156E+04-6.65936537E+00                   4
CH2CH2CO(S)     20240128C   3H   4O   1     S300.0     1500.0    642.9         1