THERMO ALL
       100       500      1500
CH3CH2CH3(S)    20231211C   3H   8          S300.0     1500.0    587.5         1
-7.33015387E-01 4.42439684E-02-2.88396596E-05 1.02388258E-08-1.58535862E-12    2
-2.34278636E+04 6.27458597E+00 1.02808294E+01-4.83010541E-02 2.58052906E-04    3
-3.81314930E-07 1.97630155E-10-2.44461215E+04-3.85564513E+01                   4
CH2CH3(S)       20231211C   2H   5          S300.0     1500.0    612.5         1
 3.25833360E-01 2.78761189E-02-1.91260937E-05 7.26380801E-09-1.20183222E-12    2
-1.45719020E+04-1.20805974E+00 3.44660608E+00-4.55842249E-03 9.17309963E-05    3
-1.50966188E-07 8.06143429E-11-1.47335736E+04-1.29231955E+01                   4
CH3(S)          20231211C   1H   3          S300.0     1500.0    650.0         1
 1.66011897E+00 1.21928241E-02-7.06992234E-06 2.28852470E-09-3.37636504E-13    2
-7.76506590E+03-7.20454915E+00 1.24287533E+00 9.98256758E-03 9.43528701E-06    3
-2.71294187E-08 1.62400994E-11-7.60973337E+03-4.59897221E+00                   4
CH3CHCH3(S)     20231211C   3H   7          S300.0     1500.0    600.0         1
-4.92490276E-01 4.18740398E-02-2.90062042E-05 1.10099036E-08-1.80808769E-12    2
-2.12051429E+04 2.88689963E+00 6.60586745E+00-2.26124438E-02 1.78767955E-04    3
-2.77550231E-07 1.45747739E-10-2.17617698E+04-2.52327331E+01                   4
CH2CH2CH3(S)    20231211C   3H   7          S300.0     1500.0    612.5         1
-9.49976094E-01 4.30565918E-02-3.03106905E-05 1.16260009E-08-1.91628052E-12    2
-1.88240910E+04 4.94193595E+00 5.19678991E+00-1.41280826E-02 1.54884065E-04    3
-2.44619319E-07 1.27987944E-10-1.92708078E+04-1.91619028E+01                   4
CH2(S)          20231211C   1H   2          S300.0     1500.0    762.5         1
 1.79545670E+00 9.28667444E-03-5.99910686E-06 2.13008723E-09-3.29479602E-13    2
-2.27574054E+03-1.05605379E+01-2.74679300E+00 3.30695338E-02-5.34836978E-05    3
 4.49474240E-08-1.50239262E-11-1.56995545E+03 1.01685665E+01                   4
CHCH3(S)        20231211C   2H   4          S300.0     1500.0    625.0         1
 7.40402364E-01 2.43465779E-02-1.73795128E-05 6.77601218E-09-1.13455995E-12    2
-9.10647578E+03-4.74637321E+00 1.28495505E+00 1.11737146E-02 3.85471145E-05    3
-8.09282915E-08 4.64049528E-11-8.98640751E+03-5.61829199E+00                   4
CH2CH2(S)       20231211C   2H   4          S300.0     1500.0    662.5         1
 8.73692846E-01 2.40604052E-02-1.73409310E-05 6.85696179E-09-1.16099892E-12    2
-9.44457591E+03-4.99703582E+00-1.81733208E-01 2.06381678E-02 1.33549142E-05    3
-4.87837424E-08 3.01360202E-11-9.08874080E+03 1.27569497E+00                   4
CH3CH2O(S)      20231211C   2H   5O   1     S300.0     1500.0    600.0         1
 3.88443491E-01 3.44414730E-02-2.50601706E-05 9.81328236E-09-1.63290798E-12    2
-2.76257028E+04-8.45362347E-01 5.90944632E+00-1.53948858E-02 1.35283009E-04    3
-2.13078862E-07 1.12579195E-10-2.80669900E+04-2.27750240E+01                   4
CH3O(S)         20231211C   1H   3O   1     S300.0     1500.0    587.5         1
 1.27791314E+00 1.93349397E-02-1.35335276E-05 5.11201606E-09-8.27263526E-13    2
-2.11065417E+04-4.98973291E+00 4.87410768E+00-1.25529523E-02 8.89669949E-05    3
-1.38504984E-07 7.37271015E-11-2.14107262E+04-1.93867859E+01                   4
CH3CCH3(S)      20231211C   3H   6          S300.0     1500.0    600.0         1
 8.33649328E-01 3.56669592E-02-2.43557011E-05 9.09308446E-09-1.47164962E-12    2
-1.48747780E+04-3.82050123E+00 6.80238946E+00-1.94129728E-02 1.55603210E-04    3
-2.44072914E-07 1.29531957E-10-1.53334657E+04-2.73633217E+01                   4
CH2CHCH3(S)     20231211C   3H   6          S300.0     1500.0    637.5         1
-3.48117141E-02 3.83889151E-02-2.76673164E-05 1.08663305E-08-1.82459712E-12    2
-1.60585155E+04-4.59998995E-01 2.54894026E+00 6.78387889E-03 8.51944259E-05    3
-1.51301838E-07 8.11973000E-11-1.60824674E+04-9.35340683E+00                   4
CHCH2CH3(S)     20231211C   3H   6          S300.0     1500.0    612.5         1
-6.08129155E-01 3.98068246E-02-2.89585327E-05 1.13800997E-08-1.90355420E-12    2
-1.33439065E+04 1.75642654E+00 3.28652645E+00-7.90308846E-04 1.10109072E-04    3
-1.87489178E-07 1.01088725E-10-1.35444050E+04-1.28495798E+01                   4
CH2CH2CH2(S)    20231211C   3H   6          S300.0     1500.0    637.5         1
-1.05463239E+00 4.14471237E-02-3.11988932E-05 1.26622582E-08-2.16935242E-12    2
-1.42437072E+04 3.06169121E+00 6.06021130E-01 1.51365655E-02 6.97729046E-05    3
-1.37028538E-07 7.56856500E-11-1.41346086E+04-1.69412768E+00                   4
CH3CH2CH2O(S)   20231211C   3H   7O   1     S300.0     1500.0    600.0         1
-9.09784540E-01 4.97088620E-02-3.63681225E-05 1.42515657E-08-2.36460035E-12    2
-3.18733822E+04 5.41321001E+00 7.81115182E+00-2.64220503E-02 2.03610478E-04    3
-3.14768614E-07 1.64562019E-10-3.26166279E+04-2.96105766E+01                   4
CH3CH2OH(S)     20231211C   2H   6O   1     S300.0     1500.0    600.0         1
 1.14545521E+00 3.57771094E-02-2.52169828E-05 9.79155155E-09-1.64031536E-12    2
-3.73401674E+04-2.50017827E+00 8.49692823E+00-2.82628040E-02 1.76591504E-04    3
-2.67105915E-07 1.39032821E-10-3.79703486E+04-3.20498056E+01                   4
CH3OH(S)        20231211C   1H   4O   1     S300.0     1500.0    587.5         1
 2.02294597E+00 2.07173799E-02-1.37572120E-05 5.13177364E-09-8.44120234E-13    2
-3.08186181E+04-6.58663303E+00 7.55018048E+00-2.62816912E-02 1.33365520E-04    3
-1.97389131E-07 1.03002418E-10-3.13212707E+04-2.90096748E+01                   4
CH3CH2CH2OH(S)  20231211C   3H   8O   1     S300.0     1500.0    600.0         1
-1.52772820E-01 5.10444985E-02-3.65249346E-05 1.42298349E-08-2.37200773E-12    2
-4.15878468E+04 3.75839408E+00 1.03986337E+01-3.92899685E-02 2.44918972E-04    3
-3.68795667E-07 1.91015645E-10-4.25199864E+04-3.88853581E+01                   4
CH(S)           20231211C   1H   1          S300.0     1500.0    662.5         1
 1.22268190E+00 8.25511656E-03-7.33134883E-06 3.41052178E-09-6.43638656E-13    2
-4.55980212E+03-8.11605937E+00-4.21223163E+00 4.01884000E-02-8.01074628E-05    3
 7.96471424E-08-3.15336004E-11-3.79627247E+03 1.61028021E+01                   4
CH2OH(S)        20231211C   1H   3O   1     S300.0     1500.0    675.0         1
 2.11601622E+00 1.80814143E-02-1.32554526E-05 5.35278873E-09-9.20520558E-13    2
-3.07848742E+04-9.92960020E+00 1.44361437E+00 1.52045576E-02 8.88958797E-06    3
-3.31527575E-08 2.01137699E-11-3.05369407E+04-5.79636283E+00                   4
CH2O(S)         20231211C   1H   2O   1     S300.0     1500.0    675.0         1
 1.93758793E+00 1.55210455E-02-1.19220447E-05 4.86946805E-09-8.31091099E-13    2
-2.05238621E+04-9.06958158E+00 8.89812577E-01 1.72986427E-02-5.74850157E-06    3
-1.18520702E-08 9.65912580E-12-2.02806244E+04-3.68012253E+00                   4
CCH3(S)         20231211C   2H   3          S300.0     1500.0    650.0         1
 1.32827094E+00 1.94192228E-02-1.39181102E-05 5.43287901E-09-9.07459085E-13    2
-1.13330195E+04-6.69296823E+00 1.20477530E+00 1.36446178E-02 1.48659897E-05    3
-4.09307094E-08 2.40115913E-11-1.11770258E+04-5.08808970E+00                   4
CHCH2(S)        20231211C   2H   3          S300.0     1500.0    687.5         1
 1.23627645E+00 2.08450242E-02-1.60172391E-05 6.60823442E-09-1.14278225E-12    2
-3.85985648E+03-8.53316645E+00-2.47801474E+00 3.58947218E-02-3.46153697E-05    3
 1.03801549E-08 3.03026770E-12-3.18730672E+03 9.13948949E+00                   4
CH3CHOH(S)      20231211C   2H   5O   1     S300.0     1500.0    637.5         1
 1.46734918E+00 3.21830134E-02-2.36865949E-05 9.53949956E-09-1.63695791E-12    2
-3.87286944E+04-7.06640363E+00 3.39967714E+00 7.86164001E-03 6.37348694E-05    3
-1.16191432E-07 6.26545769E-11-3.87304824E+04-1.36003599E+01                   4
CH3CHO(S)       20231211C   2H   4O   1     S300.0     1500.0    437.5         1
 1.47829935E+00 2.80067217E-02-2.01441256E-05 7.82987181E-09-1.30290793E-12    2
-3.02012681E+04-3.01594877E+00 7.67950350E+00-2.34084483E-02 1.37831769E-04    3
-2.03866090E-07 1.01959016E-10-3.07954314E+04-2.83872254E+01                   4
CH2CH2OH(S)     20231211C   2H   5O   1     S300.0     1500.0    637.5         1
 1.07928752E+00 3.40168231E-02-2.58891932E-05 1.06935478E-08-1.86275992E-12    2
-3.27674300E+04-4.56638661E+00 3.44878159E+00 5.40362209E-03 7.58447946E-05    3
-1.35216778E-07 7.27863020E-11-3.27967252E+04-1.27806347E+01                   4
CH2CH2O(S)      20231211C   2H   4O   1     S300.0     1500.0    637.5         1
 2.81533423E-01 3.28378676E-02-2.59531983E-05 1.08506678E-08-1.88587554E-12    2
-2.30446928E+04-2.71389417E+00 1.08340371E+00 1.61550423E-02 4.19738471E-05    3
-9.26148622E-08 5.28088989E-11-2.29117040E+04-4.38271107E+00                   4
CH2CCH3(S)      20231211C   3H   5          S300.0     1500.0    637.5         1
 1.11991484E+00 3.29350222E-02-2.40342501E-05 9.54050842E-09-1.61413032E-12    2
-9.58335017E+03-6.58006717E+00 2.28314622E+00 1.26614481E-02 5.60498021E-05    3
-1.11334070E-07 6.21492296E-11-9.47309936E+03-9.63461937E+00                   4
CHCHCH3(S)      20231211C   3H   5          S300.0     1500.0    650.0         1
 2.75377997E-01 3.53607343E-02-2.65904783E-05 1.07601538E-08-1.83683142E-12    2
-1.04622642E+04-3.73788434E+00 1.99327362E-02 2.42478612E-02 2.95119107E-05    3
-8.03749533E-08 4.74809018E-11-1.01617480E+04-5.69855924E-01                   4
CH2CHCH2(S)     20231211C   3H   5          S300.0     1500.0    662.5         1
 4.59226452E-01 3.47844773E-02-2.61850776E-05 1.06479184E-08-1.82676786E-12    2
-1.09205262E+04-3.98904820E+00-6.20580906E-01 2.76039372E-02 2.22115764E-05    3
-7.27831278E-08 4.41396099E-11-1.04754765E+04 3.03455270E+00                   4
CH3CHCH2OH(S)   20231211C   3H   7O   1     S300.0     1500.0    612.5         1
 1.32831868E-01 4.85021140E-02-3.64495787E-05 1.48532267E-08-2.56156791E-12    2
-3.93743307E+04 1.51744146E-01 6.82424927E+00-1.46327711E-02 1.69546672E-04    3
-2.71535064E-07 1.43129611E-10-3.98433796E+04-2.59515130E+01                   4
CH3CHCH2O(S)    20231211C   3H   6O   1     S300.0     1500.0    612.5         1
-6.36414933E-01 4.72139088E-02-3.63600785E-05 1.49164758E-08-2.56356919E-12    2
-2.96574047E+04 1.86581745E+00 4.31370259E+00-2.50490189E-03 1.30865483E-04    3
-2.21588613E-07 1.19016322E-10-2.99463191E+04-1.69797800E+01                   4
CCH2CH3(S)      20231211C   3H   5          S300.0     1500.0    625.0         1
-4.10710931E-02 3.49544405E-02-2.55966524E-05 1.00947469E-08-1.68884948E-12    2
-1.55659159E+04-8.77851793E-02 3.07683707E+00 2.95181361E-03 8.18203157E-05    3
-1.40184130E-07 7.44167241E-11-1.57246251E+04-1.18118093E+01                   4
CHCH2CH2(S)     20231211C   3H   5          S300.0     1500.0    650.0         1
-5.98600409E-01 3.77648893E-02-2.92453008E-05 1.20518525E-08-2.07527657E-12    2
-8.78711284E+03-6.79684300E-01-1.43178921E+00 2.96465129E-02 2.10426234E-05    3
-7.40901144E-08 4.56532055E-11-8.39733183E+03 5.12609836E+00                   4
CH3CH2CHOH(S)   20231211C   3H   7O   1     S300.0     1500.0    625.0         1
 1.25380640E-01 4.76153946E-02-3.52231469E-05 1.41158580E-08-2.39937108E-12    2
-4.29672979E+04-5.94713516E-01 5.25696180E+00-2.70400045E-03 1.30293650E-04    3
-2.14920344E-07 1.12811330E-10-4.32767527E+04-2.02643617E+01                   4
CH3CH2CHO(S)    20231211C   3H   6O   1     S300.0     1500.0    587.5         1
 4.38210336E-01 4.25822205E-02-3.03225941E-05 1.15382824E-08-1.86601515E-12    2
-3.29050645E+04 1.44858380E+00 8.38553824E+00-2.54798963E-02 1.83335926E-04    3
-2.82545029E-07 1.48615795E-10-3.36176446E+04-3.07127175E+01                   4
CH2CH2CH2OH(S)  20231211C   3H   7O   1     S300.0     1500.0    625.0         1
-2.74734752E-01 4.94952199E-02-3.74901831E-05 1.53091954E-08-2.63398776E-12    2
-3.70035656E+04 1.96388091E+00 5.37038076E+00-5.76865979E-03 1.44511421E-04    3
-2.37143879E-07 1.24731825E-10-3.73483543E+04-1.96991706E+01                   4
CH2CH2CH2O(S)   20231211C   3H   6O   1     S300.0     1500.0    625.0         1
-1.05836389E+00 4.82623404E-02-3.74786739E-05 1.54202718E-08-2.64677314E-12    2
-2.72837203E+04 3.74773084E+00 2.93792559E+00 5.61543578E-03 1.08442268E-04    3
-1.91206836E-07 1.02889159E-10-2.74577438E+04-1.10357762E+01                   4
C(S)            20231211C   1               S300.0     1500.0    625.0         1
 6.72616294E-01 5.99926235E-03-6.48474529E-06 3.28558185E-09-6.41517318E-13    2
 6.93876880E+03-4.61964781E+00-2.90445795E+00 2.92235166E-02-6.55840906E-05    3
 7.27617115E-08-3.22150731E-11 7.39988385E+03 1.09868035E+01                   4
CHOH(S)         20231211C   1H   2O   1     S300.0     1500.0    750.0         1
 2.64306166E+00 1.35386540E-02-9.82658744E-06 3.81270289E-09-6.21433406E-13    2
-2.93184977E+04-1.40652282E+01-3.58260360E-01 2.68084995E-02-3.09891401E-05    3
 1.77307391E-08-3.52553347E-12-2.87867733E+04 7.58220834E-02                   4
CCH2(S)         20231211C   2H   2          S300.0     1500.0    800.0         1
 2.34365694E+00 1.36906820E-02-9.32549544E-06 3.31155694E-09-4.88864488E-13    2
-1.37320020E+03-1.31334336E+01-1.83586912E+00 3.27813931E-02-4.21165604E-05    3
 2.83253132E-08-7.60353759E-12-6.37406543E+02 6.48517545E+00                   4
CH3COH(S)       20231211C   2H   4O   1     S300.0     1500.0    650.0         1
 2.13461936E+00 2.78684087E-02-2.09315989E-05 8.50259871E-09-1.45866979E-12    2
-3.65940828E+04-1.09885411E+01 2.05527180E+00 1.88388996E-02 2.26318216E-05    3
-6.11513641E-08 3.59147854E-11-3.63817556E+04-9.09980970E+00                   4
CH3CO(S)        20231211C   2H   3O   1     S300.0     1500.0    625.0         1
 2.16046337E+00 2.28215273E-02-1.64702694E-05 6.39356724E-09-1.05526998E-12    2
-3.51427953E+04-9.08069722E+00 3.14498957E+00 1.04480608E-02 2.83940434E-05    3
-5.89016514E-08 3.27928229E-11-3.51472848E+04-1.24254407E+01                   4
CHCH(S)         20231211C   2H   2          S300.0     1500.0    787.5         1
 1.74797188E+00 1.58310032E-02-1.22449098E-05 5.00994856E-09-8.51119862E-13    2
-3.01076007E+02-1.04263218E+01-2.94598897E+00 3.80324320E-02-5.16374361E-05    3
 3.59806722E-08-9.91369639E-12 4.95155384E+02 1.14377943E+01                   4
CHCH2OH(S)      20231211C   2H   4O   1     S300.0     1500.0    650.0         1
 1.51849954E+00 3.03983258E-02-2.40242806E-05 1.01369087E-08-1.78068781E-12    2
-2.73073630E+04-8.22589029E+00 1.42009410E+00 1.98283533E-02 2.74074457E-05    3
-7.27176509E-08 4.29964886E-11-2.70602153E+04-5.99659803E+00                   4
CH2CHOH(S)      20231211C   2H   4O   1     S300.0     1500.0    675.0         1
 2.04609526E+00 2.82638228E-02-2.17739314E-05 9.06405404E-09-1.58250522E-12    2
-3.36085869E+04-1.10095411E+01 2.20954301E-01 2.87447872E-02 6.20160273E-07    3
-3.76108175E-08 2.56414552E-11-3.31225305E+04-1.17355706E+00                   4
CHCH2O(S)       20231211C   2H   3O   1     S300.0     1500.0    650.0         1
 7.04818118E-01 2.92797210E-02-2.41722492E-05 1.03449332E-08-1.81516774E-12    2
-1.75813365E+04-6.29586836E+00-8.78004217E-01 2.99512244E-02-4.30249615E-06    3
-3.33570696E-08 2.48096793E-11-1.71808484E+04 2.13444444E+00                   4
CH2CHO(S)       20231211C   2H   3O   1     S300.0     1500.0    650.0         1
 1.29760940E+00 2.65372425E-02-2.06568730E-05 8.40027333E-09-1.41490065E-12    2
-2.59538813E+04-5.18150984E+00 1.41064841E+00 1.89184327E-02 1.38617376E-05    3
-4.60041400E-08 2.76916386E-11-2.58253331E+04-4.57214461E+00                   4
CHCCH3(S)       20231211C   3H   4          S300.0     1500.0    650.0         1
 1.27122558E+00 2.91922006E-02-2.19203898E-05 8.89145929E-09-1.52373980E-12    2
-5.94401149E+03-6.69183193E+00 1.43274552E+00 1.84208907E-02 2.64081096E-05    3
-6.65621347E-08 3.84890489E-11-5.75892637E+03-5.82452168E+00                   4
CH2CCH2(S)      20231211C   3H   4          S300.0     1500.0    675.0         1
 1.58330915E+00 2.95548193E-02-2.28388166E-05 9.47287252E-09-1.64451965E-12    2
-4.32991101E+03-1.02082632E+01-1.43966616E+00 3.69895595E-02-1.56929977E-05    3
-2.22706447E-08 2.00854872E-11-3.67723347E+03 4.96564687E+00                   4
CH3CCH2OH(S)    20231211C   3H   6O   1     S300.0     1500.0    612.5         1
 1.44576828E+00 4.23462237E-02-3.18717294E-05 1.29812246E-08-2.23528682E-12    2
-3.30413099E+04-6.49171226E+00 7.02992980E+00-1.15213708E-02 1.46694492E-04    3
-2.38543037E-07 1.27192050E-10-3.34158255E+04-2.81181797E+01                   4
CH3CCH2O(S)     20231211C   3H   5O   1     S300.0     1500.0    612.5         1
 6.76521480E-01 4.10580185E-02-3.17822292E-05 1.30444737E-08-2.23728810E-12    2
-2.33243839E+04-4.77763895E+00 4.51938312E+00 6.06498416E-04 1.08013303E-04    3
-1.88596585E-07 1.03078761E-10-2.35187649E+04-1.91464466E+01                   4
CCHCH3(S)       20231211C   3H   4          S300.0     1500.0    662.5         1
 7.48047335E-01 3.04591967E-02-2.28560539E-05 9.16634126E-09-1.54608067E-12    2
-7.83459119E+03-5.20468419E+00 4.01450571E-01 2.35841008E-02 1.35466060E-05    3
-4.96883884E-08 2.97950582E-11-7.59008839E+03-2.19198760E+00                   4
CHCHCH2(S)      20231211C   3H   4          S300.0     1500.0    687.5         1
 8.97484423E-01 3.12874401E-02-2.44756299E-05 1.01685105E-08-1.75766897E-12    2
-5.35175362E+03-7.89497805E+00-3.04550434E+00 4.40350913E-02-2.96961344E-05    3
-7.87426259E-09 1.39531719E-11-4.56300728E+03 1.14114274E+01                   4
CH3CHCHOH(S)    20231211C   3H   6O   1     S300.0     1500.0    650.0         1
 1.10467097E+00 4.27097147E-02-3.22547706E-05 1.31624177E-08-2.26507179E-12    2
-4.02152681E+04-6.31018247E+00 2.76753484E+00 1.66391082E-02 6.63406766E-05    3
-1.30779303E-07 7.14379938E-11-4.01010208E+04-1.10753492E+01                   4
CH3CHCHO(S)     20231211C   3H   5O   1     S300.0     1500.0    600.0         1
 8.30068046E-01 3.97597405E-02-3.01039082E-05 1.21362660E-08-2.05576092E-12    2
-3.07985427E+04-2.45783192E+00 5.38494029E+00-3.42178552E-03 1.12482879E-04    3
-1.89101735E-07 1.02030218E-10-3.11236739E+04-2.02349850E+01                   4
CH2CHCH2OH(S)   20231211C   3H   6O   1     S300.0     1500.0    637.5         1
 5.78624979E-01 4.50663906E-02-3.51848419E-05 1.47575277E-08-2.58934273E-12    2
-3.42255118E+04-3.13851213E+00 3.15291935E+00 1.10394492E-02 8.92518160E-05    3
-1.66005575E-07 9.05194959E-11-3.41955256E+04-1.15895633E+01                   4
CH2CHCH2O(S)    20231211C   3H   5O   1     S300.0     1500.0    650.0         1
-8.24877848E-02 4.33696612E-02-3.45284628E-05 1.44778858E-08-2.51494978E-12    2
-2.45309892E+04-1.95113658E+00 4.57713902E-01 2.48722592E-02 4.47866890E-05    3
-1.07513082E-07 6.17636492E-11-2.42827849E+04-1.88329892E+00                   4
CCH2CH2(S)      20231211C   3H   4          S300.0     1500.0    675.0         1
 1.87862130E-02 3.25247674E-02-2.53006330E-05 1.04007774E-08-1.77831287E-12    2
-6.33528215E+03-2.38089477E+00-1.37293902E+00 3.10000586E-02 2.97240686E-07    3
-3.80779631E-08 2.55207608E-11-5.92178854E+03 5.43650452E+00                   4
CH3CH2COH(S)    20231211C   3H   6O   1     S300.0     1500.0    637.5         1
 8.13211148E-01 4.32197544E-02-3.23515842E-05 1.30062538E-08-2.20445439E-12    2
-4.08367395E+04-4.61605410E+00 3.71727032E+00 1.01329764E-02 8.26617543E-05    3
-1.49864660E-07 8.04046014E-11-4.09118961E+04-1.49927269E+01                   4
CH3CH2CO(S)     20231211C   3H   5O   1     S300.0     1500.0    625.0         1
 9.87641089E-01 3.79542797E-02-2.74939731E-05 1.06532272E-08-1.74931602E-12    2
-3.78223222E+04-3.98487638E+00 4.34580171E+00 4.41251902E-03 8.40446478E-05    3
-1.44891859E-07 7.69641269E-11-3.80148493E+04-1.67695549E+01                   4
CHCH2CH(S)      20231211C   3H   4          S300.0     1500.0    662.5         1
-1.66386460E-01 3.41756883E-02-2.74245093E-05 1.15237338E-08-1.99991568E-12    2
-3.32577382E+03-4.30590753E+00-3.31222989E+00 4.26711151E-02-2.25239854E-05    3
-1.89889215E-08 2.00044376E-11-2.67315781E+03 1.13236211E+01                   4
CHCH2CH2OH(S)   20231211C   3H   6O   1     S300.0     1500.0    625.0         1
 6.46696748E-02 4.62548484E-02-3.61512701E-05 1.50714163E-08-2.62309282E-12    2
-3.15228847E+04-1.20977719E+00 3.53525386E+00 6.85348390E-03 1.02249629E-04    3
-1.83871440E-07 1.00017316E-10-3.16281575E+04-1.36835187E+01                   4
CH2CH2CHOH(S)   20231211C   3H   6O   1     S300.0     1500.0    662.5         1
 2.31367805E-01 4.52164980E-02-3.50237064E-05 1.44983672E-08-2.50760230E-12    2
-3.84309489E+04-3.50274714E+00 5.69632913E-01 2.73501074E-02 4.29006435E-05    3
-1.04623841E-07 5.94476081E-11-3.81315390E+04-2.40218978E+00                   4
CHCH2CH2O(S)    20231211C   3H   5O   1     S300.0     1500.0    637.5         1
-6.14295124E-01 4.46223733E-02-3.55801430E-05 1.48412592E-08-2.55931646E-12    2
-2.18244673E+04 6.54467186E-02 7.76171363E-01 2.13183706E-02 5.54762757E-05    3
-1.21693739E-07 6.90914938E-11-2.17103313E+04-3.72743956E+00                   4
CH2CH2CHO(S)    20231211C   3H   5O   1     S300.0     1500.0    637.5         1
 4.05885463E-01 4.06877400E-02-3.08006823E-05 1.23185807E-08-2.06049614E-12    2
-2.83389571E+04-7.80705172E-01 2.98203352E+00 1.16636028E-02 7.00150975E-05    3
-1.30737022E-07 7.07040087E-11-2.84153826E+04-1.00495995E+01                   4
COH(S)          20231211C   1O   1H   1     S300.0     1500.0    800.0         1
 3.66874154E+00 8.43366380E-03-7.02349763E-06 3.09291904E-09-5.54444466E-13    2
-3.15812111E+04-1.76210249E+01 6.74393018E-01 2.28832875E-02-3.37252584E-05    3
 2.55109037E-08-7.76930138E-12-3.10752801E+04-3.70730460E+00                   4
CCH(S)          20231211C   2H   1          S300.0     1500.0    712.5         1
 2.35854241E+00 1.13065667E-02-9.39421334E-06 4.03339201E-09-7.07231915E-13    2
 1.16661309E+04-1.30596576E+01-1.41513369E+00 3.22190451E-02-5.42692460E-05    3
 4.81747067E-08-1.74446983E-11 1.22279136E+04 3.97552231E+00                   4
CCH2OH(S)       20231211C   2H   3O   1     S300.0     1500.0    662.5         1
 2.07178140E+00 2.56063134E-02-2.07563853E-05 8.91384793E-09-1.58092960E-12    2
-2.95270303E+04-1.00053356E+01 1.60265188E+00 1.98120111E-02 1.24017164E-05    3
-4.59355794E-08 2.80247745E-11-2.92726516E+04-6.50529759E+00                   4
CH2COH(S)       20231211C   2H   3O   1     S300.0     1500.0    725.0         1
 2.92607847E+00 2.32976952E-02-1.81422389E-05 7.50094077E-09-1.28673504E-12    2
-3.14117421E+04-1.62286406E+01-1.50011407E+00 4.15109440E-02-4.30844211E-05    3
 1.83568746E-08-5.81536446E-13-3.05991900E+04 4.84584053E+00                   4
CCH2O(S)        20231211C   2H   2O   1     S300.0     1500.0    700.0         1
 1.40026077E+00 2.37546016E-02-1.98438986E-05 8.46790777E-09-1.46904154E-12    2
-1.51463082E+04-8.38009459E+00-8.25888862E-01 3.13435491E-02-2.50934563E-05    3
 2.58690605E-09 4.79169118E-12-1.47045373E+04 2.47406302E+00                   4
CH2CO(S)        20231211C   2H   2O   1     S300.0     1500.0    737.5         1
 2.65308869E+00 1.91301133E-02-1.44197162E-05 5.66145755E-09-9.19850030E-13    2
-2.91077803E+04-1.31848075E+01-4.08815914E-01 3.26220154E-02-3.56521295E-05    3
 1.91032457E-08-3.39359186E-12-2.85659901E+04 1.24335559E+00                   4
CHCHOH(S)       20231211C   2H   3O   1     S300.0     1500.0    700.0         1
 2.42954011E+00 2.49763182E-02-2.03580878E-05 8.76369180E-09-1.55357055E-12    2
-2.80286184E+04-1.46491946E+01-1.99104383E+00 4.32140130E-02-4.46453573E-05    3
 1.75029395E-08 7.66989078E-13-2.72281770E+04 6.35592170E+00                   4
CHCHO(S)        20231211C   2H   2O   1     S300.0     1500.0    700.0         1
 1.94442636E+00 2.17490782E-02-1.74323358E-05 7.15795193E-09-1.20185408E-12    2
-1.93798083E+04-8.40272379E+00 2.03020586E-01 2.83681858E-02-2.43366775E-05    3
 6.34308980E-09 2.00787215E-12-1.90520889E+04-3.59441492E-02                   4
CCCH3(S)        20231211C   3H   3          S300.0     1500.0    637.5         1
 2.32143065E+00 2.30922942E-02-1.69832598E-05 6.70383212E-09-1.11967796E-12    2
 5.92652964E+03-1.14911794E+01 2.75549028E+00 1.44164067E-02 1.80445011E-05    3
-4.65216988E-08 2.70416423E-11 5.99246273E+03-1.24472111E+01                   4
CHCCH2(S)       20231211C   3H   3          S300.0     1500.0    712.5         1
 1.90223865E+00 2.52075032E-02-1.99204006E-05 8.35498022E-09-1.45309621E-12    2
-7.27133103E+02-1.11446640E+01-2.07720725E+00 4.06968804E-02-3.80483762E-05    3
 1.12128380E-08 2.86375501E-12 1.95810362E+01 7.93795258E+00                   4
CH3CCHOH(S)     20231211C   3H   5O   1     S300.0     1500.0    650.0         1
 2.24707365E+00 3.73025191E-02-2.86866729E-05 1.18759845E-08-2.06339852E-12    2
-3.37375578E+04-1.23702621E+01 2.54472812E+00 2.21150923E-02 3.85766707E-05    3
-9.28822432E-08 5.35337698E-11-3.34952657E+04-1.15270835E+01                   4
CH3CCHO(S)      20231211C   3H   4O   1     S300.0     1500.0    600.0         1
 1.78591941E+00 3.39012480E-02-2.56786560E-05 1.02797852E-08-1.72363050E-12    2
-2.41970092E+04-7.63403970E+00 5.19160449E+00 4.29998516E-04 8.77199378E-05    3
-1.53159230E-07 8.43583563E-11-2.44236171E+04-2.07704121E+01                   4
CH2CCH2OH(S)    20231211C   3H   5O   1     S300.0     1500.0    650.0         1
 1.87359632E+00 3.90810704E-02-3.08123965E-05 1.29834281E-08-2.27879659E-12    2
-2.77793055E+04-9.94123809E+00 2.53300550E+00 2.02253723E-02 4.87326250E-05    3
-1.08976603E-07 6.20462345E-11-2.75563967E+04-1.04660756E+01                   4
CH2CCH2O(S)     20231211C   3H   4O   1     S300.0     1500.0    650.0         1
 1.05991490E+00 3.79624656E-02-3.09603651E-05 1.31914527E-08-2.31327652E-12    2
-1.80532790E+04-8.01121617E+00 2.34907181E-01 3.03482433E-02 1.70226832E-05    3
-6.96160221E-08 4.38594252E-11-1.76770298E+04-2.33503314E+00                   4
CCHCH2(S)       20231211C   3H   3          S300.0     1500.0    725.0         1
 1.50137964E+00 2.57140949E-02-1.97892862E-05 7.99844315E-09-1.34015639E-12    2
 1.93158569E+03-9.61903888E+00-2.43305401E+00 4.14299799E-02-4.00315077E-05    3
 1.50261533E-08 4.76482602E-13 2.66682543E+03 9.20153050E+00                   4
CH3CHCOH(S)     20231211C   3H   5O   1     S300.0     1500.0    662.5         1
 1.66536670E+00 3.89037172E-02-3.01782205E-05 1.25116484E-08-2.16714286E-12    2
-3.79493162E+04-9.96091463E+00 9.95459061E-01 2.99581838E-02 2.04606680E-05    3
-7.11274666E-08 4.29466470E-11-3.75740382E+04-4.86156065E+00                   4
CH3CHCO(S)      20231211C   3H   4O   1     S300.0     1500.0    637.5         1
 1.88172306E+00 3.34391855E-02-2.53012489E-05 1.02269105E-08-1.73813957E-12    2
-3.38856085E+04-8.96383778E+00 2.77923790E+00 1.79282930E-02 3.55366697E-05    3
-8.09760276E-08 4.60632621E-11-3.38006828E+04-1.13312350E+01                   4
CHCHCH(S)       20231211C   3H   3          S300.0     1500.0    700.0         1
 1.17597248E+00 2.83891203E-02-2.35910524E-05 1.01849169E-08-1.79842551E-12    2
 2.50425800E+02-1.10213210E+01-5.11249744E+00 5.71866804E-02-7.05684249E-05    3
 4.08672604E-08-7.52608901E-12 1.31885413E+03 1.83619033E+01                   4
CHCHCH2OH(S)    20231211C   3H   5O   1     S300.0     1500.0    662.5         1
 1.06114496E+00 4.13888804E-02-3.32090369E-05 1.41086612E-08-2.48087522E-12    2
-2.86650739E+04-7.25627281E+00 3.11228374E-01 3.14016236E-02 2.36915546E-05    3
-8.04028380E-08 4.87781244E-11-2.82483405E+04-1.56333157E+00                   4
CH2CHCHOH(S)    20231211C   3H   5O   1     S300.0     1500.0    675.0         1
 1.67264704E+00 3.88347260E-02-3.04076932E-05 1.27288832E-08-2.22039193E-12    2
-3.50931490E+04-1.02018544E+01-2.86567683E-01 3.63402656E-02 7.35606491E-06    3
-5.85001117E-08 3.79681725E-11-3.45033975E+04 8.58928526E-01                   4
CHCHCH2O(S)     20231211C   3H   4O   1     S300.0     1500.0    662.5         1
 2.32521777E-01 4.03264758E-02-3.34346910E-05 1.43635191E-08-2.52575904E-12    2
-1.89359360E+04-5.25340188E+00-1.92949139E+00 4.09934684E-02-6.21156078E-06    3
-4.37217831E-08 3.20535719E-11-1.83738367E+04 6.33959269E+00                   4
CH2CHCHO(S)     20231211C   3H   4O   1     S300.0     1500.0    650.0         1
 1.34489516E+00 3.60609046E-02-2.84711806E-05 1.18164117E-08-2.03328314E-12    2
-2.56638885E+04-6.08369950E+00 1.45207628E+00 2.47478714E-02 2.33886742E-05    3
-7.00107227E-08 4.17019074E-11-2.54542624E+04-4.84099038E+00                   4
CCH2CH(S)       20231211C   3H   3          S300.0     1500.0    700.0         1
 4.81846862E-01 2.87465552E-02-2.32075263E-05 9.70669572E-09-1.66643233E-12    2
 9.97251825E+02-6.00369317E+00-3.12465411E+00 4.28984237E-02-3.97778372E-05    3
 1.19890845E-08 2.65136165E-12 1.66699488E+03 1.12560739E+01                   4
CCH2CH2OH(S)    20231211C   3H   5O   1     S300.0     1500.0    637.5         1
 6.50456103E-01 4.13337747E-02-3.26966411E-05 1.37313455E-08-2.39647125E-12    2
-3.37488996E+04-3.14578602E+00 3.40909474E+00 9.77028977E-03 7.69729182E-05    3
-1.41377356E-07 7.61827151E-11-3.38150424E+04-1.29725801E+01                   4
CH2CH2COH(S)    20231211C   3H   5O   1     S300.0     1500.0    675.0         1
 9.45650120E-01 4.07315176E-02-3.20410102E-05 1.33283147E-08-2.30053610E-12    2
-3.63065319E+04-7.65591978E+00-6.79752684E-01 3.74066187E-02 5.08618925E-06    3
-5.47131641E-08 3.56556702E-11-3.57905271E+04 1.72482232E+00                   4
CCH2CH2O(S)     20231211C   3H   4O   1     S300.0     1500.0    650.0         1
-4.33729893E-02 3.97610138E-02-3.22127370E-05 1.35562715E-08-2.34542305E-12    2
-2.40476214E+04-1.79915929E+00 7.91273318E-01 2.28801478E-02 3.49933748E-05    3
-8.66130599E-08 4.94864295E-11-2.39088053E+04-3.57327843E+00                   4
CH2CH2CO(S)     20231211C   3H   4O   1     S300.0     1500.0    675.0         1